15
Energy = -389.5011418073
O     0.3227377    0.0000000    0.0000000 
O    -0.3227377    0.0000000    0.0000000 
H     1.7308949   -2.7376529   -1.7974007 
O     2.6326300    2.3443459   -1.1340806 
H     2.2279244    2.3443459   -0.8189509 
H     3.0373356    2.3443459   -0.8189509 
O     1.0482629   -2.5863543    2.4396023 
H     0.6435573   -2.5863543    2.7547321 
H     1.4529685   -2.5863543    2.7547321 
O     2.5835521    2.2901416   -1.3385842 
H     2.1788464    2.2901416   -1.0234544 
H     2.9882577    2.2901416   -1.0234544 
O     2.9135407    1.3620862    1.8415326 
H     2.5088351    1.3620862    2.1566623 
H     3.3182463    1.3620862    2.1566623 
