15
Energy = -402.9348003543
O     0.3227377    0.0000000    0.0000000 
O    -0.3227377    0.0000000    0.0000000 
H     3.3422027   -3.4038789    2.2904422 
O     2.8331109    2.1542675   -3.9122859 
H     2.4284052    2.1542675   -3.5971562 
H     3.2378165    2.1542675   -3.5971562 
O     2.6554798   -4.4552301   -1.0460869 
H     2.2507741   -4.4552301   -0.7309572 
H     3.0601854   -4.4552301   -0.7309572 
O     0.2992483   -5.0802450   -1.4468897 
H    -0.1054573   -5.0802450   -1.1317600 
H     0.7039540   -5.0802450   -1.1317600 
O     0.2251532   -5.1449320   -1.2135344 
H    -0.1795524   -5.1449320   -0.8984046 
H     0.6298588   -5.1449320   -0.8984046 
