15
Energy = -405.5351618988
O     0.3227377    0.0000000    0.0000000 
O    -0.3227377    0.0000000    0.0000000 
H    -2.9568530    3.3917748    2.7849093 
O    -3.0722286   -3.5410570   -2.4508562 
H    -3.4769342   -3.5410570   -2.1357265 
H    -2.6675229   -3.5410570   -2.1357265 
O    -1.8516090   -2.8579656    4.0542476 
H    -2.2563146   -2.8579656    4.3693773 
H    -1.4469033   -2.8579656    4.3693773 
O    -1.7100535   -3.0595338    3.9683333 
H    -2.1147592   -3.0595338    4.2834631 
H    -1.3053479   -3.0595338    4.2834631 
O    -3.3392679   -3.9587818   -1.0825929 
H    -3.7439736   -3.9587818   -0.7674631 
H    -2.9345623   -3.9587818   -0.7674631 
