15
Energy = -418.4379784733
O     0.3227377    0.0000000    0.0000000 
O    -0.3227377    0.0000000    0.0000000 
H     0.0660451   -2.7438197   -2.4876658 
O     2.5432192    2.0894024   -1.6955951 
H     2.1385136    2.0894024   -1.3804654 
H     2.9479249    2.0894024   -1.3804654 
O    -1.4707157   -3.0126384    1.5793262 
H    -1.8754213   -3.0126384    1.8944559 
H    -1.0660101   -3.0126384    1.8944559 
O    -1.0839747   -2.4881929   -2.5172046 
H    -1.4886803   -2.4881929   -2.2020748 
H    -0.6792690   -2.4881929   -2.2020748 
O    -1.3709698   -2.5731734   -2.2811010 
H    -1.7756754   -2.5731734   -1.9659712 
H    -0.9662642   -2.5731734   -1.9659712 
