15
Energy = -431.1525828613
O     0.3227377    0.0000000    0.0000000 
O    -0.3227377    0.0000000    0.0000000 
H    -2.4525417   -1.6586644    2.2260416 
O    -1.2987707    2.8359512    2.0017547 
H    -1.7034763    2.8359512    2.3168845 
H    -0.8940650    2.8359512    2.3168845 
O    -1.9758881   -0.9658841    2.9844227 
H    -2.3805938   -0.9658841    3.2995525 
H    -1.5711825   -0.9658841    3.2995525 
O     2.4538733   -1.9860645   -1.9341323 
H     2.0491676   -1.9860645   -1.6190025 
H     2.8585789   -1.9860645   -1.6190025 
O    -1.1673100    2.6258378    2.3412316 
H    -1.5720156    2.6258378    2.6563614 
H    -0.7626044    2.6258378    2.6563614 
