15
Energy = -432.2601172352
O     0.3227377    0.0000000    0.0000000 
O    -0.3227377    0.0000000    0.0000000 
H     1.4139850   -1.9387088   -2.8219575 
O    -3.2191159   -0.8452378    1.6298812 
H    -3.6238215   -0.8452378    1.9450109 
H    -2.8144103   -0.8452378    1.9450109 
O     1.1080986    3.5345193    0.0298500 
H     0.7033929    3.5345193    0.3449797 
H     1.5128042    3.5345193    0.3449797 
O    -2.0242432   -2.6469707   -1.6140659 
H    -2.4289488   -2.6469707   -1.2989362 
H    -1.6195376   -2.6469707   -1.2989362 
O    -2.3468378   -2.6277445   -1.1402203 
H    -2.7515434   -2.6277445   -0.8250905 
H    -1.9421321   -2.6277445   -0.8250905 
