15
Energy = -437.0457020274
O     0.3227377    0.0000000    0.0000000 
O    -0.3227377    0.0000000    0.0000000 
H    -2.4401370   -0.1969317    2.7799890 
O    -2.2618472   -2.9225031   -0.2500324 
H    -2.6665528   -2.9225031    0.0650974 
H    -1.8571415   -2.9225031    0.0650974 
O    -3.2165756   -1.0524765   -1.5019993 
H    -3.6212812   -1.0524765   -1.1868695 
H    -2.8118700   -1.0524765   -1.1868695 
O    -1.4123080   -2.1113362    2.6998793 
H    -1.8170136   -2.1113362    3.0150091 
H    -1.0076024   -2.1113362    3.0150091 
O    -3.2128027   -1.4106313   -1.1834204 
H    -3.6175083   -1.4106313   -0.8682907 
H    -2.8080971   -1.4106313   -0.8682907 
