15
Energy = -442.3913320248
O     0.3227377    0.0000000    0.0000000 
O    -0.3227377    0.0000000    0.0000000 
H    -3.3101584    3.8178201    1.5716034 
O    -3.5928877    3.8784023   -0.2242471 
H    -3.9975933    3.8784023    0.0908827 
H    -3.1881821    3.8784023    0.0908827 
O    -3.2236824    4.1263350   -0.7604787 
H    -3.6283880    4.1263350   -0.4453490 
H    -2.8189768    4.1263350   -0.4453490 
O     3.9586730    2.7087222   -2.2310886 
H     3.5539673    2.7087222   -1.9159589 
H     4.3633786    2.7087222   -1.9159589 
O    -2.8995709   -3.7510711    2.3542517 
H    -3.3042765   -3.7510711    2.6693815 
H    -2.4948653   -3.7510711    2.6693815 
