15
Energy = -442.4054218200
O     0.3227377    0.0000000    0.0000000 
O    -0.3227377    0.0000000    0.0000000 
H     3.1578163    0.7119550    1.8007515 
O     3.1342236   -1.1253116   -1.6184889 
H     2.7295179   -1.1253116   -1.3033592 
H     3.5389292   -1.1253116   -1.3033592 
O    -1.9978442    3.0213023    0.7794837 
H    -2.4025498    3.0213023    1.0946135 
H    -1.5931386    3.0213023    1.0946135 
O    -3.0447479   -2.0704221    0.4090443 
H    -3.4494536   -2.0704221    0.7241741 
H    -2.6400423   -2.0704221    0.7241741 
O    -1.6252781    3.3166962    0.2855217 
H    -2.0299837    3.3166962    0.6006515 
H    -1.2205724    3.3166962    0.6006515 
