15
Energy = -443.0217318082
O     0.3227377    0.0000000    0.0000000 
O    -0.3227377    0.0000000    0.0000000 
H     1.6306142    4.1164767   -2.8980257 
O    -4.5549068   -1.0732593    2.4743463 
H    -4.9596124   -1.0732593    2.7894761 
H    -4.1502012   -1.0732593    2.7894761 
O     5.0185141    1.4336946    0.8766173 
H     4.6138085    1.4336946    1.1917471 
H     5.4232197    1.4336946    1.1917471 
O     1.4222160    4.0757722   -3.0569902 
H     1.0175104    4.0757722   -2.7418604 
H     1.8269216    4.0757722   -2.7418604 
O    -1.3701390    3.7326932    3.4955487 
H    -1.7748446    3.7326932    3.8106784 
H    -0.9654334    3.7326932    3.8106784 
