15
Energy = -443.2993836156
O     0.3227377    0.0000000    0.0000000 
O    -0.3227377    0.0000000    0.0000000 
H     1.5987337    2.8067387   -1.8131901 
O    -1.5023677    3.3776301    0.2401871 
H    -1.9070734    3.3776301    0.5553169 
H    -1.0976621    3.3776301    0.5553169 
O    -2.0548819    0.7700924   -2.9804955 
H    -2.4595876    0.7700924   -2.6653658 
H    -1.6501763    0.7700924   -2.6653658 
O     2.9707405    0.2007466    2.2073505 
H     2.5660349    0.2007466    2.5224803 
H     3.3754461    0.2007466    2.5224803 
O     1.5137369    2.9606514   -1.6285754 
H     1.1090313    2.9606514   -1.3134457 
H     1.9184425    2.9606514   -1.3134457 
