15
Energy = -443.3103517886
O     0.3227377    0.0000000    0.0000000 
O    -0.3227377    0.0000000    0.0000000 
H     4.1717875    1.2225944    3.0173313 
O     4.3311512   -2.9845808    0.5836288 
H     3.9264456   -2.9845808    0.8987585 
H     4.7358568   -2.9845808    0.8987585 
O    -3.5455224    1.7828590   -3.4967385 
H    -3.9502280    1.7828590   -3.1816087 
H    -3.1408167    1.7828590   -3.1816087 
O     4.0361115    1.1574971    3.2244539 
H     3.6314059    1.1574971    3.5395837 
H     4.4408171    1.1574971    3.5395837 
O    -4.5156250    2.5815527    0.9771877 
H    -4.9203306    2.5815527    1.2923174 
H    -4.1109193    2.5815527    1.2923174 
