15
Energy = -443.6842283102
O     0.3227377    0.0000000    0.0000000 
O    -0.3227377    0.0000000    0.0000000 
H     1.2948951    3.0472561   -4.1279914 
O     3.9847172   -2.9717520   -1.8110510 
H     3.5800116   -2.9717520   -1.4959213 
H     4.3894228   -2.9717520   -1.4959213 
O    -4.2483325   -3.0817482   -0.6725011 
H    -4.6530381   -3.0817482   -0.3573713 
H    -3.8436269   -3.0817482   -0.3573713 
O     3.7088385   -0.0167078   -3.7707651 
H     3.3041329   -0.0167078   -3.4556354 
H     4.1135442   -0.0167078   -3.4556354 
O     3.9814375   -0.5170239   -3.4435067 
H     3.5767318   -0.5170239   -3.1283769 
H     4.3861431   -0.5170239   -3.1283769 
