15
Energy = -444.7654386259
O     0.3227377    0.0000000    0.0000000 
O    -0.3227377    0.0000000    0.0000000 
H    -4.9611192   -1.2768786    1.3265420 
O    -1.1395509   -5.1645511   -0.1742022 
H    -1.5442565   -5.1645511    0.1409275 
H    -0.7348453   -5.1645511    0.1409275 
O    -3.9345849    3.3935359   -0.9991276 
H    -4.3392905    3.3935359   -0.6839979 
H    -3.5298792    3.3935359   -0.6839979 
O    -1.6318412   -4.9651173   -0.8254163 
H    -2.0365468   -4.9651173   -0.5102865 
H    -1.2271356   -4.9651173   -0.5102865 
O    -1.2356873    1.8986260   -4.7786128 
H    -1.6403929    1.8986260   -4.4634831 
H    -0.8309817    1.8986260   -4.4634831 
