15
Energy = -444.8272725517
O     0.3227377    0.0000000    0.0000000 
O    -0.3227377    0.0000000    0.0000000 
H    -2.9494728    4.1427757   -1.4631663 
O     0.0241382   -4.7831052   -2.2598958 
H    -0.3805675   -4.7831052   -1.9447661 
H     0.4288438   -4.7831052   -1.9447661 
O     0.1877297   -5.1868344    1.0354345 
H    -0.2169759   -5.1868344    1.3505642 
H     0.5924353   -5.1868344    1.3505642 
O     5.1160464    0.6313589    1.1997125 
H     4.7113407    0.6313589    1.5148422 
H     5.5207520    0.6313589    1.5148422 
O    -2.6466984    4.2168767   -1.7894937 
H    -3.0514040    4.2168767   -1.4743639 
H    -2.2419927    4.2168767   -1.4743639 
