15
Energy = -444.5669051127
O     0.3227377    0.0000000    0.0000000 
O    -0.3227377    0.0000000    0.0000000 
H    -0.7440740   -1.9294560    3.0732626 
O    -2.7587898   -0.2100355    2.4667613 
H    -3.1634955   -0.2100355    2.7818910 
H    -2.3540842   -0.2100355    2.7818910 
O    -3.6809923    0.2779922   -0.3034908 
H    -4.0856979    0.2779922    0.0116389 
H    -3.2762867    0.2779922    0.0116389 
O     2.9234005   -1.2478271   -1.8983519 
H     2.5186949   -1.2478271   -1.5832221 
H     3.3281062   -1.2478271   -1.5832221 
O    -2.2384343    0.1406642    2.9518172 
H    -2.6431400    0.1406642    3.2669470 
H    -1.8337287    0.1406642    3.2669470 
