15
Energy = -445.5500808321
O     0.3227377    0.0000000    0.0000000 
O    -0.3227377    0.0000000    0.0000000 
H    -3.7694679    3.4488067    1.3782890 
O    -3.4656092   -3.0239100   -2.6131722 
H    -3.8703148   -3.0239100   -2.2980424 
H    -3.0609036   -3.0239100   -2.2980424 
O     3.7328590    1.9447581   -3.2034954 
H     3.3281534    1.9447581   -2.8883656 
H     4.1375646    1.9447581   -2.8883656 
O    -3.7657689    3.3154712    1.6858678 
H    -4.1704745    3.3154712    2.0009975 
H    -3.3610633    3.3154712    2.0009975 
O     2.7976410    3.1283616   -3.2194939 
H     2.3929354    3.1283616   -2.9043641 
H     3.2023466    3.1283616   -2.9043641 
