15
Energy = -445.5401491048
O     0.3227377    0.0000000    0.0000000 
O    -0.3227377    0.0000000    0.0000000 
H    -4.9340837    1.5323149   -1.1444060 
O     0.9234699   -3.9997175    3.3432703 
H     0.5187643   -3.9997175    3.6584001 
H     1.3281756   -3.9997175    3.6584001 
O     3.5993111    3.0983128    2.3379139 
H     3.1946054    3.0983128    2.6530437 
H     4.0040167    3.0983128    2.6530437 
O    -4.2805285    1.2979480   -2.8238216 
H    -4.6852341    1.2979480   -2.5086919 
H    -3.8758228    1.2979480   -2.5086919 
O    -4.7196571    0.9370856   -2.1984034 
H    -5.1243627    0.9370856   -1.8832737 
H    -4.3149515    0.9370856   -1.8832737 
