15
Energy = -445.3526325388
O     0.3227377    0.0000000    0.0000000 
O    -0.3227377    0.0000000    0.0000000 
H    -0.7133707   -3.4015324    3.9904280 
O    -3.7185511    3.3203201    1.7787823 
H    -4.1232567    3.3203201    2.0939120 
H    -3.3138455    3.3203201    2.0939120 
O    -0.3860977   -3.4158743    4.0268935 
H    -0.7908033   -3.4158743    4.3420232 
H     0.0186080   -3.4158743    4.3420232 
O    -3.4370111    2.4780429   -3.1662662 
H    -3.8417167    2.4780429   -2.8511365 
H    -3.0323054    2.4780429   -2.8511365 
O     2.7501592    3.2878195   -3.0994119 
H     2.3454535    3.2878195   -2.7842822 
H     3.1548648    3.2878195   -2.7842822 
