15
Energy = -445.4874441113
O     0.3227377    0.0000000    0.0000000 
O    -0.3227377    0.0000000    0.0000000 
H     3.1587046    1.4628921   -3.9856453 
O    -1.1950886    4.2359826    2.9416295 
H    -1.5997942    4.2359826    3.2567593 
H    -0.7903829    4.2359826    3.2567593 
O     3.1610896   -1.8736307    3.8116322 
H     2.7563839   -1.8736307    4.1267620 
H     3.5657952   -1.8736307    4.1267620 
O     3.6894523    1.5784592   -3.4457637 
H     3.2847467    1.5784592   -3.1306339 
H     4.0941579    1.5784592   -3.1306339 
O    -0.5134243    3.9485849    3.4891495 
H    -0.9181299    3.9485849    3.8042793 
H    -0.1087187    3.9485849    3.8042793 
