15
Energy = -445.8205350605
O     0.3227377    0.0000000    0.0000000 
O    -0.3227377    0.0000000    0.0000000 
H     3.2918652    1.3133496    1.0770915 
O     2.4127442   -1.7512945   -2.1946492 
H     2.0080386   -1.7512945   -1.8795194 
H     2.8174499   -1.7512945   -1.8795194 
O    -1.3429694    2.1753231    2.6843973 
H    -1.7476750    2.1753231    2.9995270 
H    -0.9382637    2.1753231    2.9995270 
O     3.0182603   -1.5714324    1.4673541 
H     2.6135547   -1.5714324    1.7824839 
H     3.4229659   -1.5714324    1.7824839 
O     3.4150415   -1.0659163    0.9643390 
H     3.0103359   -1.0659163    1.2794688 
H     3.8197471   -1.0659163    1.2794688 
