15
Energy = -445.8352737226
O     0.3227377    0.0000000    0.0000000 
O    -0.3227377    0.0000000    0.0000000 
H     4.7784628   -2.2109944   -0.5297486 
O    -1.2709324   -1.4393405    4.9348765 
H    -1.6756380   -1.4393405    5.2500063 
H    -0.8662267   -1.4393405    5.2500063 
O    -4.7449214   -1.8229914    1.4752464 
H    -5.1496271   -1.8229914    1.7903762 
H    -4.3402158   -1.8229914    1.7903762 
O    -2.3004370   -3.0717716    3.6472580 
H    -2.7051426   -3.0717716    3.9623877 
H    -1.8957313   -3.0717716    3.9623877 
O     4.6228352   -2.5141324   -0.5542396 
H     4.2181296   -2.5141324   -0.2391099 
H     5.0275409   -2.5141324   -0.2391099 
