15
Energy = -445.8681209962
O     0.3227377    0.0000000    0.0000000 
O    -0.3227377    0.0000000    0.0000000 
H    -3.4588293   -3.6904842   -1.5555263 
O    -3.8016479    2.7417697   -2.4524539 
H    -4.2063535    2.7417697   -2.1373242 
H    -3.3969422    2.7417697   -2.1373242 
O    -2.0600509   -1.4184097   -4.6596185 
H    -2.4647565   -1.4184097   -4.3444887 
H    -1.6553452   -1.4184097   -4.3444887 
O     3.1930563    0.1650098   -4.2128692 
H     2.7883506    0.1650098   -3.8977395 
H     3.5977619    0.1650098   -3.8977395 
O     3.2114742    0.9088752   -4.1027201 
H     2.8067685    0.9088752   -3.7875904 
H     3.6161798    0.9088752   -3.7875904 
