15
Energy = -446.2797232156
O     0.3227377    0.0000000    0.0000000 
O    -0.3227377    0.0000000    0.0000000 
H     2.0186448    2.0394459    2.3424609 
O    -0.7782694    2.7551768   -2.3467008 
H    -1.1829750    2.7551768   -2.0315711 
H    -0.3735638    2.7551768   -2.0315711 
O     2.6565919    1.7176631    1.9308199 
H     2.2518863    1.7176631    2.2459496 
H     3.0612975    1.7176631    2.2459496 
O     2.8011888   -0.0944181   -2.4181802 
H     2.3964832   -0.0944181   -2.1030505 
H     3.2058944   -0.0944181   -2.1030505 
O     1.6326922    2.3458233    2.3602065 
H     1.2279865    2.3458233    2.6753362 
H     2.0373978    2.3458233    2.6753362 
