15
Energy = -446.5233466284
O     0.3227377    0.0000000    0.0000000 
O    -0.3227377    0.0000000    0.0000000 
H     4.0307092   -2.8834886   -1.8551854 
O    -0.9493718    0.8209681   -5.1370079 
H    -1.3540774    0.8209681   -4.8218782 
H    -0.5446662    0.8209681   -4.8218782 
O    -2.5071472    3.4463299   -3.1330906 
H    -2.9118528    3.4463299   -2.8179608 
H    -2.1024415    3.4463299   -2.8179608 
O     4.2023044   -2.5540984   -1.9507315 
H     3.7975988   -2.5540984   -1.6356018 
H     4.6070101   -2.5540984   -1.6356018 
O    -2.9748025    3.3677331    2.7987170 
H    -3.3795082    3.3677331    3.1138467 
H    -2.5700969    3.3677331    3.1138467 
