15
Energy = -446.9232317174
O     0.3227377    0.0000000    0.0000000 
O    -0.3227377    0.0000000    0.0000000 
H     2.0086874    4.0845911    2.6989122 
O     2.4844305   -2.7519685   -3.7720945 
H     2.0797249   -2.7519685   -3.4569647 
H     2.8891361   -2.7519685   -3.4569647 
O     3.5405197    3.6639094    1.4332136 
H     3.1358140    3.6639094    1.7483434 
H     3.9452253    3.6639094    1.7483434 
O     3.2987330    3.4082517    2.3500418 
H     2.8940274    3.4082517    2.6651715 
H     3.7034386    3.4082517    2.6651715 
O    -0.3612279   -3.4656555    3.9864246 
H    -0.7659336   -3.4656555    4.3015544 
H     0.0434777   -3.4656555    4.3015544 
