15
Energy = -446.3089435907
O     0.3227377    0.0000000    0.0000000 
O    -0.3227377    0.0000000    0.0000000 
H    -3.4751241    2.7124500    2.9272792 
O    -4.1870935    1.0147501    3.0764451 
H    -4.5917991    1.0147501    3.3915749 
H    -3.7823879    1.0147501    3.3915749 
O    -4.6698638    0.6113570    2.4165327 
H    -5.0745695    0.6113570    2.7316624 
H    -4.2651582    0.6113570    2.7316624 
O     1.0213486    3.9259872    3.4017503 
H     0.6166430    3.9259872    3.7168801 
H     1.4260542    3.9259872    3.7168801 
O     4.2996154    2.9591130    0.8754262 
H     3.8949098    2.9591130    1.1905559 
H     4.7043210    2.9591130    1.1905559 
