15
Energy = -446.1451866013
O     0.3227377    0.0000000    0.0000000 
O    -0.3227377    0.0000000    0.0000000 
H    -2.8138439   -1.3159575    2.0179019 
O    -2.8034715    1.6236026    1.7998301 
H    -3.2081771    1.6236026    2.1149599 
H    -2.3987659    1.6236026    2.1149599 
O    -2.2048429    2.1974426    2.0115750 
H    -2.6095486    2.1974426    2.3267048 
H    -1.8001373    2.1974426    2.3267048 
O    -0.6716121    2.3584490   -2.7725722 
H    -1.0763177    2.3584490   -2.4574425 
H    -0.2669065    2.3584490   -2.4574425 
O     1.8854690   -2.1374330   -2.3621976 
H     1.4807634   -2.1374330   -2.0470679 
H     2.2901746   -2.1374330   -2.0470679 
