15
Energy = -446.9052847227
O     0.3227377    0.0000000    0.0000000 
O    -0.3227377    0.0000000    0.0000000 
H     1.8283025   -3.2112775   -0.2576748 
O    -1.8241496   -3.1810464    0.5279890 
H    -2.2288553   -3.1810464    0.8431187 
H    -1.4194440   -3.1810464    0.8431187 
O     1.0081547   -1.7077623    3.1324322 
H     0.6034491   -1.7077623    3.4475619 
H     1.4128603   -1.7077623    3.4475619 
O    -1.1607542   -1.7608852   -3.0414486 
H    -1.5654598   -1.7608852   -2.7263189 
H    -0.7560486   -1.7608852   -2.7263189 
O    -2.3855196   -2.6130013    1.1005371 
H    -2.7902252   -2.6130013    1.4156668 
H    -1.9808140   -2.6130013    1.4156668 
