15
Energy = -446.9507254270
O     0.3227377    0.0000000    0.0000000 
O    -0.3227377    0.0000000    0.0000000 
H    -0.6529413    3.9558318    3.4536789 
O     2.0059550   -4.0001056   -2.8207950 
H     1.6012494   -4.0001056   -2.5056652 
H     2.4106606   -4.0001056   -2.5056652 
O     3.2858824   -3.1981745   -2.6377299 
H     2.8811768   -3.1981745   -2.3226001 
H     3.6905881   -3.1981745   -2.3226001 
O    -4.3433158    1.7494163    2.4691217 
H    -4.7480214    1.7494163    2.7842515 
H    -3.9386102    1.7494163    2.7842515 
O    -0.2176275    3.9030966    3.5704592 
H    -0.6223332    3.9030966    3.8855890 
H     0.1870781    3.9030966    3.8855890 
