15
Energy = -446.7882626844
O     0.3227377    0.0000000    0.0000000 
O    -0.3227377    0.0000000    0.0000000 
H    -2.8759264    2.3018848    0.3895686 
O    -1.4594584    3.0078157   -1.5913580 
H    -1.8641641    3.0078157   -1.2762283 
H    -1.0547528    3.0078157   -1.2762283 
O    -2.1180591   -2.0794395    2.2198752 
H    -2.5227647   -2.0794395    2.5350050 
H    -1.7133535   -2.0794395    2.5350050 
O    -2.9078411    0.8596247    2.1314147 
H    -3.3125467    0.8596247    2.4465444 
H    -2.5031354    0.8596247    2.4465444 
O    -2.3483590    1.5239238    2.4295130 
H    -2.7530646    1.5239238    2.7446427 
H    -1.9436534    1.5239238    2.7446427 
