15
Energy = -446.4037906853
O     0.3227377    0.0000000    0.0000000 
O    -0.3227377    0.0000000    0.0000000 
H    -2.0913782    1.3878217   -2.7242389 
O     1.6278764    2.2191303   -2.4755234 
H     1.2231708    2.2191303   -2.1603937 
H     2.0325821    2.2191303   -2.1603937 
O     1.7591745    1.5242797   -2.8777744 
H     1.3544689    1.5242797   -2.5626446 
H     2.1638801    1.5242797   -2.5626446 
O     0.1459446   -3.5610124    1.0133587 
H    -0.2587610   -3.5610124    1.3284884 
H     0.5506502   -3.5610124    1.3284884 
O     3.5362709    1.0993656    0.0907883 
H     3.1315653    1.0993656    0.4059181 
H     3.9409765    1.0993656    0.4059181 
