15
Energy = -447.3104464984
O     0.3227377    0.0000000    0.0000000 
O    -0.3227377    0.0000000    0.0000000 
H     0.3381047   -3.8732348   -3.5897873 
O     1.7766856   -3.1391545    3.8757063 
H     1.3719799   -3.1391545    4.1908361 
H     2.1813912   -3.1391545    4.1908361 
O     2.9119101    3.8383787    2.1924774 
H     2.5072045    3.8383787    2.5076071 
H     3.3166158    3.8383787    2.5076071 
O    -1.5894516   -4.8304015   -1.4603740 
H    -1.9941572   -4.8304015   -1.1452442 
H    -1.1847459   -4.8304015   -1.1452442 
O     1.7149176   -3.8681512    3.1817040 
H     1.3102120   -3.8681512    3.4968338 
H     2.1196233   -3.8681512    3.4968338 
