15
Energy = -447.5529944559
O     0.3227377    0.0000000    0.0000000 
O    -0.3227377    0.0000000    0.0000000 
H    -0.3593316   -2.5332189    4.6321182 
O    -4.1933516    2.0298094   -2.5059193 
H    -4.5980572    2.0298094   -2.1907895 
H    -3.7886459    2.0298094   -2.1907895 
O     0.4454537   -2.7994835    4.4722429 
H     0.0407481   -2.7994835    4.7873726 
H     0.8501594   -2.7994835    4.7873726 
O     1.2680962   -3.4703413    3.7921017 
H     0.8633905   -3.4703413    4.1072315 
H     1.6728018   -3.4703413    4.1072315 
O    -3.0419805    3.1973086    2.9237659 
H    -3.4466861    3.1973086    3.2388957 
H    -2.6372749    3.1973086    3.2388957 
