15
Energy = -447.9902992848
O     0.3227377    0.0000000    0.0000000 
O    -0.3227377    0.0000000    0.0000000 
H     2.9628024   -1.4537855   -1.6821711 
O     3.1613281   -1.4857324    1.2366446 
H     2.7566225   -1.4857324    1.5517744 
H     3.5660337   -1.4857324    1.5517744 
O     3.2788190   -1.7235799    0.0009133 
H     2.8741133   -1.7235799    0.3160430 
H     3.6835246   -1.7235799    0.3160430 
O    -0.6631744   -2.6355901   -2.5132287 
H    -1.0678800   -2.6355901   -2.1980989 
H    -0.2584688   -2.6355901   -2.1980989 
O    -3.0646751   -2.0805504    0.0253543 
H    -3.4693808   -2.0805504    0.3404840 
H    -2.6599695   -2.0805504    0.3404840 
