15
Energy = -447.0575558418
O     0.3227377    0.0000000    0.0000000 
O    -0.3227377    0.0000000    0.0000000 
H     0.6792864    2.9843940   -2.0864688 
O    -1.9016789    2.6785854   -1.7080145 
H    -2.3063846    2.6785854   -1.3928848 
H    -1.4969733    2.6785854   -1.3928848 
O     2.1449299   -2.2813322    1.9827007 
H     1.7402242   -2.2813322    2.2978305 
H     2.5496355   -2.2813322    2.2978305 
O    -2.7075912    2.2556442   -1.1374667 
H    -3.1122968    2.2556442   -0.8223370 
H    -2.3028856    2.2556442   -0.8223370 
O    -0.1266029    2.9285916    2.2684306 
H    -0.5313085    2.9285916    2.5835604 
H     0.2781027    2.9285916    2.5835604 
