15
Energy = -447.3657860015
O     0.3227377    0.0000000    0.0000000 
O    -0.3227377    0.0000000    0.0000000 
H    -1.7234449   -2.4445964   -2.1851947 
O     2.1875668    1.4567090    2.6141169 
H     1.7828612    1.4567090    2.9292466 
H     2.5922725    1.4567090    2.9292466 
O    -2.8812528    1.8442486    1.4245105 
H    -3.2859584    1.8442486    1.7396402 
H    -2.4765472    1.8442486    1.7396402 
O     2.5081776    0.5385516    2.6759166 
H     2.1034720    0.5385516    2.9910463 
H     2.9128832    0.5385516    2.9910463 
O    -3.2738199    1.3949277   -1.0246663 
H    -3.6785255    1.3949277   -0.7095365 
H    -2.8691142    1.3949277   -0.7095365 
