15
Energy = -447.1706274589
O     0.3227377    0.0000000    0.0000000 
O    -0.3227377    0.0000000    0.0000000 
H    -3.6576085   -0.1149507   -0.5745228 
O    -3.5222244    0.2622208   -1.1127323 
H    -3.9269300    0.2622208   -0.7976025 
H    -3.1175188    0.2622208   -0.7976025 
O     1.2901491    3.4574901   -0.3166523 
H     0.8854435    3.4574901   -0.0015226 
H     1.6948547    3.4574901   -0.0015226 
O    -2.2820505   -1.8485585    2.2613000 
H    -2.6867561   -1.8485585    2.5764298 
H    -1.8773449   -1.8485585    2.5764298 
O     0.0461343    3.6646368   -0.5344718 
H    -0.3585713    3.6646368   -0.2193420 
H     0.4508399    3.6646368   -0.2193420 
