15
Energy = -447.8447265499
O     0.3227377    0.0000000    0.0000000 
O    -0.3227377    0.0000000    0.0000000 
H    -4.4982255    0.4498892   -2.7507096 
O    -3.4495764    3.8509870   -1.1245785 
H    -3.8542820    3.8509870   -0.8094487 
H    -3.0448708    3.8509870   -0.8094487 
O    -5.1491759    1.0676377   -0.5869754 
H    -5.5538815    1.0676377   -0.2718456 
H    -4.7444703    1.0676377   -0.2718456 
O     4.5122418    1.5578833    2.2875135 
H     4.1075362    1.5578833    2.6026433 
H     4.9169474    1.5578833    2.6026433 
O    -5.2412739   -0.0365492   -0.7246230 
H    -5.6459795   -0.0365492   -0.4094933 
H    -4.8365683   -0.0365492   -0.4094933 
