15
Energy = -447.5947936424
O     0.3227377    0.0000000    0.0000000 
O    -0.3227377    0.0000000    0.0000000 
H    -3.1114400    2.0082380   -0.0855039 
O    -3.2548812    1.7006147   -0.4810526 
H    -3.6595868    1.7006147   -0.1659229 
H    -2.8501756    1.7006147   -0.1659229 
O     1.1988269   -0.8980649    3.3916374 
H     0.7941212   -0.8980649    3.7067672 
H     1.6035325   -0.8980649    3.7067672 
O    -0.5081044   -3.6691996    0.0176988 
H    -0.9128101   -3.6691996    0.3328285 
H    -0.1033988   -3.6691996    0.3328285 
O    -2.1836495   -2.8437600    0.9344059 
H    -2.5883551   -2.8437600    1.2495356 
H    -1.7789439   -2.8437600    1.2495356 
