15
Energy = -447.8443828811
O     0.3227377    0.0000000    0.0000000 
O    -0.3227377    0.0000000    0.0000000 
H    -3.4263940    3.1441660   -2.5252487 
O     0.4337326   -0.7066727    5.2301711 
H     0.0290269   -0.7066727    5.5453008 
H     0.8384382   -0.7066727    5.5453008 
O    -4.1928382   -2.5341545   -1.9964868 
H    -4.5975438   -2.5341545   -1.6813570 
H    -3.7881326   -2.5341545   -1.6813570 
O    -2.8379692    3.2828265   -3.0247363 
H    -3.2426748    3.2828265   -2.7096066 
H    -2.4332636    3.2828265   -2.7096066 
O     3.6139612   -3.7425597    0.9709084 
H     3.2092556   -3.7425597    1.2860382 
H     4.0186668   -3.7425597    1.2860382 
