15
Energy = -447.2336082181
O     0.3227377    0.0000000    0.0000000 
O    -0.3227377    0.0000000    0.0000000 
H     3.9647067   -2.8124035    2.0914883 
O    -2.6616252    0.4073980   -4.5517393 
H    -3.0663308    0.4073980   -4.2366095 
H    -2.2569196    0.4073980   -4.2366095 
O     3.6784590   -3.1391030    2.1526729 
H     3.2737534   -3.1391030    2.4678026 
H     4.0831647   -3.1391030    2.4678026 
O    -2.5624744    3.6441314    2.8597875 
H    -2.9671800    3.6441314    3.1749172 
H    -2.1577688    3.6441314    3.1749172 
O     4.4571890    1.1758023   -2.5950412 
H     4.0524834    1.1758023   -2.2799115 
H     4.8618946    1.1758023   -2.2799115 
