15
Energy = -447.9860095482
O     0.3227377    0.0000000    0.0000000 
O    -0.3227377    0.0000000    0.0000000 
H     1.9376555    4.3246407   -2.3549543 
O     4.0100872   -2.6647186    2.1995129 
H     3.6053816   -2.6647186    2.5146426 
H     4.4147928   -2.6647186    2.5146426 
O     4.9559931   -0.1747646    1.8504982 
H     4.5512875   -0.1747646    2.1656280 
H     5.3606987   -0.1747646    2.1656280 
O     1.6941017    4.6046654   -1.9786362 
H     1.2893961    4.6046654   -1.6635065 
H     2.0988073    4.6046654   -1.6635065 
O     3.5651467   -2.9430833   -2.5712745 
H     3.1604411   -2.9430833   -2.2561447 
H     3.9698523   -2.9430833   -2.2561447 
