15
Energy = -447.1708815197
O     0.3227377    0.0000000    0.0000000 
O    -0.3227377    0.0000000    0.0000000 
H    -2.8863077   -3.8092009    2.2720150 
O     1.4775992    5.0669826   -0.3773181 
H     1.0728936    5.0669826   -0.0621884 
H     1.8823048    5.0669826   -0.0621884 
O     3.4340071   -2.1971125   -3.3701247 
H     3.0293014   -2.1971125   -3.0549950 
H     3.8387127   -2.1971125   -3.0549950 
O    -4.1496760   -3.2107791    0.6921851 
H    -4.5543816   -3.2107791    1.0073149 
H    -3.7449703   -3.2107791    1.0073149 
O    -3.8997288   -3.5695962   -0.2263102 
H    -4.3044344   -3.5695962    0.0888196 
H    -3.4950231   -3.5695962    0.0888196 
