15
Energy = -447.6172636562
O     0.3227377    0.0000000    0.0000000 
O    -0.3227377    0.0000000    0.0000000 
H    -0.4046315    4.7704684   -2.2542716 
O    -0.1364662    2.5532489    4.6368124 
H    -0.5411718    2.5532489    4.9519421 
H     0.2682394    2.5532489    4.9519421 
O     0.1970668    3.4185407    4.0383128 
H    -0.2076388    3.4185407    4.3534425 
H     0.6017724    3.4185407    4.3534425 
O     2.5146735   -1.9946905    4.2109563 
H     2.1099678   -1.9946905    4.5260861 
H     2.9193791   -1.9946905    4.5260861 
O    -3.3887107    3.4263402    2.1900098 
H    -3.7934163    3.4263402    2.5051396 
H    -2.9840051    3.4263402    2.5051396 
