15
Energy = -447.5203615809
O     0.3227377    0.0000000    0.0000000 
O    -0.3227377    0.0000000    0.0000000 
H     2.9655517   -0.6886466    2.1101324 
O    -2.2919235   -1.8614473    2.2406127 
H    -2.6966292   -1.8614473    2.5557425 
H    -1.8872179   -1.8614473    2.5557425 
O     3.4496781    1.2629230    0.4793026 
H     3.0449724    1.2629230    0.7944324 
H     3.8543837    1.2629230    0.7944324 
O    -0.8847701   -0.3684440    3.5818674 
H    -1.2894757   -0.3684440    3.8969971 
H    -0.4800645   -0.3684440    3.8969971 
O    -2.4614404   -2.4325621    1.3248786 
H    -2.8661460   -2.4325621    1.6400084 
H    -2.0567347   -2.4325621    1.6400084 
