15
Energy = -447.7028692796
O     0.3227377    0.0000000    0.0000000 
O    -0.3227377    0.0000000    0.0000000 
H    -2.5596900    2.5865325    3.8419621 
O    -3.1881216    2.5185907    3.3942537 
H    -3.5928273    2.5185907    3.7093835 
H    -2.7834160    2.5185907    3.7093835 
O     2.1428445   -4.6130391    1.4635328 
H     1.7381389   -4.6130391    1.7786626 
H     2.5475502   -4.6130391    1.7786626 
O    -4.2861666   -2.5334709    1.7962869 
H    -4.6908723   -2.5334709    2.1114166 
H    -3.8814610   -2.5334709    2.1114166 
O     4.7084197   -0.7109220   -2.3045270 
H     4.3037141   -0.7109220   -1.9893973 
H     5.1131254   -0.7109220   -1.9893973 
