15
Energy = -447.0039791326
O     0.3227377    0.0000000    0.0000000 
O    -0.3227377    0.0000000    0.0000000 
H     2.6780165    4.2930361   -1.5494854 
O    -1.4275332   -3.3395878    3.8524186 
H    -1.8322388   -3.3395878    4.1675484 
H    -1.0228275   -3.3395878    4.1675484 
O     2.6162404    3.2909592    3.2174399 
H     2.2115348    3.2909592    3.5325697 
H     3.0209460    3.2909592    3.5325697 
O     0.2330127    5.2861931   -0.0648183 
H    -0.1716929    5.2861931    0.2503114 
H     0.6377183    5.2861931    0.2503114 
O     2.5640138    4.1812629   -1.9826166 
H     2.1593082    4.1812629   -1.6674869 
H     2.9687194    4.1812629   -1.6674869 
