15
Energy = -447.0504030659
O     0.3227377    0.0000000    0.0000000 
O    -0.3227377    0.0000000    0.0000000 
H     2.9901328   -3.0729049    3.1014831 
O     2.9937085   -2.7696900    3.3756130 
H     2.5890029   -2.7696900    3.6907428 
H     3.3984141   -2.7696900    3.6907428 
O     2.1367453    3.8637289   -2.9132126 
H     1.7320397    3.8637289   -2.5980828 
H     2.5414509    3.8637289   -2.5980828 
O    -1.1213313    2.8881426   -4.2862337 
H    -1.5260369    2.8881426   -3.9711040 
H    -0.7166257    2.8881426   -3.9711040 
O     4.8135357    1.5989729   -1.5048761 
H     4.4088300    1.5989729   -1.1897464 
H     5.2182413    1.5989729   -1.1897464 
