15
Energy = -448.7036414602
O     0.3227377    0.0000000    0.0000000 
O    -0.3227377    0.0000000    0.0000000 
H     0.8737330   -1.0737737    3.4358391 
O     2.0033851    2.2653869    2.1428905 
H     1.5986795    2.2653869    2.4580202 
H     2.4080907    2.2653869    2.4580202 
O    -2.4484653   -2.3949474    1.4146628 
H    -2.8531710   -2.3949474    1.7297926 
H    -2.0437597   -2.3949474    1.7297926 
O     1.0512056   -1.2821171   -3.3087168 
H     0.6465000   -1.2821171   -2.9935871 
H     1.4559112   -1.2821171   -2.9935871 
O    -2.8496945    2.0494029   -1.1796960 
H    -3.2544001    2.0494029   -0.8645663 
H    -2.4449889    2.0494029   -0.8645663 
