15
Energy = -448.6864245718
O     0.3227377    0.0000000    0.0000000 
O    -0.3227377    0.0000000    0.0000000 
H     3.8928605   -1.2316135    3.3662444 
O     5.2576969    0.5974307   -0.0465889 
H     4.8529913    0.5974307    0.2685408 
H     5.6624026    0.5974307    0.2685408 
O     1.6475588   -3.5569586   -3.5510114 
H     1.2428532   -3.5569586   -3.2358817 
H     2.0522645   -3.5569586   -3.2358817 
O     2.2140480    4.3693380    2.0061913 
H     1.8093423    4.3693380    2.3213211 
H     2.6187536    4.3693380    2.3213211 
O    -2.9824754   -2.1395670   -3.8080500 
H    -3.3871810   -2.1395670   -3.4929203 
H    -2.5777698   -2.1395670   -3.4929203 
