15
Energy = -448.6981223412
O     0.3227377    0.0000000    0.0000000 
O    -0.3227377    0.0000000    0.0000000 
H     3.5923328   -3.1280463   -2.3050613 
O    -5.1014825   -0.3879658    1.3555020 
H    -5.5061882   -0.3879658    1.6706318 
H    -4.6967769   -0.3879658    1.6706318 
O    -0.7710769    3.7377825    3.6694511 
H    -1.1757825    3.7377825    3.9845808 
H    -0.3663713    3.7377825    3.9845808 
O    -2.7705744    1.7731664    4.1489586 
H    -3.1752800    1.7731664    4.4640884 
H    -2.3658688    1.7731664    4.4640884 
O    -3.9693890   -0.4058449   -3.4721637 
H    -4.3740947   -0.4058449   -3.1570340 
H    -3.5646834   -0.4058449   -3.1570340 
