15
Energy = -448.6231810183
O     0.3227377    0.0000000    0.0000000 
O    -0.3227377    0.0000000    0.0000000 
H     2.1489661   -2.9901823   -3.8004724 
O     2.8026657   -3.2384071   -3.1043894 
H     2.3979601   -3.2384071   -2.7892597 
H     3.2073714   -3.2384071   -2.7892597 
O    -3.5666240    3.8262754   -0.7972633 
H    -3.9713296    3.8262754   -0.4821336 
H    -3.1619184    3.8262754   -0.4821336 
O     4.9351800    0.9006435    1.6877110 
H     4.5304744    0.9006435    2.0028408 
H     5.3398856    0.9006435    2.0028408 
O    -4.3718625    0.1951347   -2.9713955 
H    -4.7765681    0.1951347   -2.6562658 
H    -3.9671569    0.1951347   -2.6562658 
