15
Energy = -448.6718811511
O     0.3227377    0.0000000    0.0000000 
O    -0.3227377    0.0000000    0.0000000 
H     4.7535179    0.6282735   -2.2387890 
O    -3.9864670    0.2118281   -3.4698569 
H    -4.3911727    0.2118281   -3.1547272 
H    -3.5817614    0.2118281   -3.1547272 
O    -1.4467714    3.1246808   -4.0144514 
H    -1.8514770    3.1246808   -3.6993216 
H    -1.0420658    3.1246808   -3.6993216 
O    -4.5513285    1.8883394   -1.9255926 
H    -4.9560342    1.8883394   -1.6104628 
H    -4.1466229    1.8883394   -1.6104628 
O    -0.2409529    5.2742865    0.3596851 
H    -0.6456585    5.2742865    0.6748149 
H     0.1637528    5.2742865    0.6748149 
