15
Energy = -448.6641303761
O     0.3227377    0.0000000    0.0000000 
O    -0.3227377    0.0000000    0.0000000 
H     2.2936351    4.1481102    2.3527125 
O     2.6068488    3.2515392   -3.2573194 
H     2.2021432    3.2515392   -2.9421897 
H     3.0115544    3.2515392   -2.9421897 
O     2.2960307    1.5484211   -4.5055006 
H     1.8913251    1.5484211   -4.1903708 
H     2.7007364    1.5484211   -4.1903708 
O     1.5628128   -4.7643317    1.6953894 
H     1.1581072   -4.7643317    2.0105192 
H     1.9675185   -4.7643317    2.0105192 
O    -2.5303188    3.6405789    2.8927969 
H    -2.9350244    3.6405789    3.2079266 
H    -2.1256132    3.6405789    3.2079266 
