15
Energy = -448.6426990471
O     0.3227377    0.0000000    0.0000000 
O    -0.3227377    0.0000000    0.0000000 
H    -2.5652302   -2.6400213    3.8016730 
O     1.0551581   -5.1844534    0.1082630 
H     0.6504525   -5.1844534    0.4233928 
H     1.4598637   -5.1844534    0.4233928 
O     1.4982628   -3.3135699    3.8480198 
H     1.0935572   -3.3135699    4.1631496 
H     1.9029684   -3.3135699    4.1631496 
O    -1.8129752   -2.2270864    4.4485416 
H    -2.2176808   -2.2270864    4.7636713 
H    -1.4082696   -2.2270864    4.7636713 
O     1.4289422    3.6890390    3.5182988 
H     1.0242366    3.6890390    3.8334285 
H     1.8336478    3.6890390    3.8334285 
