15
Energy = -448.6889831613
O     0.3227377    0.0000000    0.0000000 
O    -0.3227377    0.0000000    0.0000000 
H    -1.8912658   -2.4506000   -4.2919121 
O    -3.6495568    3.6779923    1.0789125 
H    -4.0542625    3.6779923    1.3940423 
H    -3.2448512    3.6779923    1.3940423 
O    -3.0193637   -4.3276199    0.4012377 
H    -3.4240693   -4.3276199    0.7163675 
H    -2.6146581   -4.3276199    0.7163675 
O    -2.3086974   -3.5549557    3.1715780 
H    -2.7134030   -3.5549557    3.4867078 
H    -1.9039917   -3.5549557    3.4867078 
O    -2.4489255   -1.6559612    4.3927726 
H    -2.8536311   -1.6559612    4.7079024 
H    -2.0442199   -1.6559612    4.7079024 
