15
Energy = -448.6853442712
O     0.3227377    0.0000000    0.0000000 
O    -0.3227377    0.0000000    0.0000000 
H     1.7906407   -3.4650048    3.5763366 
O    -0.7924020   -5.1310396   -1.0196453 
H    -1.1971076   -5.1310396   -0.7045155 
H    -0.3876963   -5.1310396   -0.7045155 
O     4.8798815    1.8672390   -0.8346932 
H     4.4751759    1.8672390   -0.5195635 
H     5.2845871    1.8672390   -0.5195635 
O     3.4918504   -3.3463761    2.1512243 
H     3.0871448   -3.3463761    2.4663541 
H     3.8965561   -3.3463761    2.4663541 
O     2.0869568   -2.6367706   -4.0821734 
H     1.6822512   -2.6367706   -3.7670436 
H     2.4916624   -2.6367706   -3.7670436 
