15
Energy = -448.6931604884
O     0.3227377    0.0000000    0.0000000 
O    -0.3227377    0.0000000    0.0000000 
H     4.3239466    3.0467029    0.1546715 
O     1.7014383   -5.0083766    0.1590303 
H     1.2967327   -5.0083766    0.4741601 
H     2.1061439   -5.0083766    0.4741601 
O     3.3190374    2.9941639   -2.8285155 
H     2.9143317    2.9941639   -2.5133858 
H     3.7237430    2.9941639   -2.5133858 
O    -1.0974517   -3.7177971    3.6060444 
H    -1.5021573   -3.7177971    3.9211741 
H    -0.6927461   -3.7177971    3.9211741 
O    -2.8284258    2.9994684   -3.3137697 
H    -3.2331314    2.9994684   -2.9986399 
H    -2.4237202    2.9994684   -2.9986399 
