15
Energy = -448.7196039907
O     0.3227377    0.0000000    0.0000000 
O    -0.3227377    0.0000000    0.0000000 
H    -3.4541804    1.2678157    0.4274003 
O    -2.9327785   -0.0300405    2.2663510 
H    -3.3374841   -0.0300405    2.5814807 
H    -2.5280728   -0.0300405    2.5814807 
O    -0.1381112   -1.6649836    3.3098414 
H    -0.5428168   -1.6649836    3.6249711 
H     0.2665945   -1.6649836    3.6249711 
O     2.3512831    2.6113098   -1.1683783 
H     1.9465775    2.6113098   -0.8532485 
H     2.7559887    2.6113098   -0.8532485 
O    -1.4754717    3.3460779    0.5937948 
H    -1.8801773    3.3460779    0.9089245 
H    -1.0707661    3.3460779    0.9089245 
