15
Energy = -448.7062340221
O     0.3227377    0.0000000    0.0000000 
O    -0.3227377    0.0000000    0.0000000 
H    -1.0783406    1.4029209    3.2542871 
O    -1.9811209   -2.9013083    1.1780557 
H    -2.3858265   -2.9013083    1.4931855 
H    -1.5764153   -2.9013083    1.4931855 
O    -2.5997200    2.1638283    1.5139607 
H    -3.0044257    2.1638283    1.8290904 
H    -2.1950144    2.1638283    1.8290904 
O    -1.0479245    3.3776260   -1.0984543 
H    -1.4526301    3.3776260   -0.7833246 
H    -0.6432189    3.3776260   -0.7833246 
O     0.1726064    0.7979882   -3.6093798 
H    -0.2320992    0.7979882   -3.2942501 
H     0.5773120    0.7979882   -3.2942501 
