15
Energy = -448.6898407869
O     0.3227377    0.0000000    0.0000000 
O    -0.3227377    0.0000000    0.0000000 
H    -3.6304217   -0.0976407    3.8488103 
O    -2.9912236   -1.0329151   -4.2375212 
H    -3.3959292   -1.0329151   -3.9223915 
H    -2.5865180   -1.0329151   -3.9223915 
O    -3.5117657    3.4085531    2.0167482 
H    -3.9164713    3.4085531    2.3318780 
H    -3.1070601    3.4085531    2.3318780 
O    -0.8109884    3.9162081   -3.4615563 
H    -1.2156940    3.9162081   -3.1464265 
H    -0.4062828    3.9162081   -3.1464265 
O    -0.8002336   -5.1000478    1.1665091 
H    -1.2049392   -5.1000478    1.4816388 
H    -0.3955280   -5.1000478    1.4816388 
