15
Energy = -448.3574968370
O     0.3227377    0.0000000    0.0000000 
O    -0.3227377    0.0000000    0.0000000 
H     2.0408956    2.6673175    1.5625467 
O     2.6302638    1.8895154   -1.7942438 
H     2.2255581    1.8895154   -1.4791141 
H     3.0349694    1.8895154   -1.4791141 
O    -2.0817131    2.0770245    2.2562807 
H    -2.4864187    2.0770245    2.5714104 
H    -1.6770075    2.0770245    2.5714104 
O    -0.5091924    2.7558055    2.4260875 
H    -0.9138980    2.7558055    2.7412172 
H    -0.1044868    2.7558055    2.7412172 
O    -3.0973220    1.7203458    1.0846882 
H    -3.5020277    1.7203458    1.3998180 
H    -2.6926164    1.7203458    1.3998180 
