15
Energy = -448.6963697049
O     0.3227377    0.0000000    0.0000000 
O    -0.3227377    0.0000000    0.0000000 
H    -0.2363107   -2.2078084   -4.8033921 
O     0.2067995   -5.0213716   -1.6533105 
H    -0.1979062   -5.0213716   -1.3381807 
H     0.6115051   -5.0213716   -1.3381807 
O     1.7169705   -0.1218687    5.0077625 
H     1.3122649   -0.1218687    5.3228923 
H     2.1216761   -0.1218687    5.3228923 
O    -1.5559614    2.8986457    4.1486014 
H    -1.9606670    2.8986457    4.4637311 
H    -1.1512558    2.8986457    4.4637311 
O    -1.1655406    1.0402224   -5.0521517 
H    -1.5702462    1.0402224   -4.7370220 
H    -0.7608350    1.0402224   -4.7370220 
