15
Energy = -448.6853792777
O     0.3227377    0.0000000    0.0000000 
O    -0.3227377    0.0000000    0.0000000 
H     4.4544188   -1.4125199    2.4830982 
O    -3.2947015   -2.4276330    3.3585187 
H    -3.6994072   -2.4276330    3.6736484 
H    -2.8899959   -2.4276330    3.6736484 
O    -2.0966384   -2.5869407   -4.1089818 
H    -2.5013440   -2.5869407   -3.7938520 
H    -1.6919328   -2.5869407   -3.7938520 
O     4.5141986   -2.3832482   -1.3908592 
H     4.1094930   -2.3832482   -1.0757294 
H     4.9189042   -2.3832482   -1.0757294 
O     2.5547966    2.0723075   -4.1412798 
H     2.1500910    2.0723075   -3.8261501 
H     2.9595022    2.0723075   -3.8261501 
