15
Energy = -448.6886663207
O     0.3227377    0.0000000    0.0000000 
O    -0.3227377    0.0000000    0.0000000 
H     3.1215547    4.2051052   -0.7588296 
O    -3.8300692    3.1915072   -1.7704080 
H    -4.2347748    3.1915072   -1.4552783 
H    -3.4253636    3.1915072   -1.4552783 
O     4.0543179   -0.2490374    3.3954193 
H     3.6496123   -0.2490374    3.7105491 
H     4.4590236   -0.2490374    3.7105491 
O    -3.6902399   -1.1254149    3.6256986 
H    -4.0949455   -1.1254149    3.9408284 
H    -3.2855343   -1.1254149    3.9408284 
O    -4.0117764    1.3096941    3.1964416 
H    -4.4164820    1.3096941    3.5115714 
H    -3.6070708    1.3096941    3.5115714 
