15
Energy = -448.6209846172
O     0.3227377    0.0000000    0.0000000 
O    -0.3227377    0.0000000    0.0000000 
H    -0.7810933    2.4172045   -2.6959981 
O    -2.2315169   -2.2644027    1.9048700 
H    -2.6362225   -2.2644027    2.2199998 
H    -1.8268113   -2.2644027    2.2199998 
O     1.6122488    0.4419827   -3.3017907 
H     1.2075432    0.4419827   -2.9866609 
H     2.0169544    0.4419827   -2.9866609 
O    -0.6071701    1.4278954   -3.3598421 
H    -1.0118758    1.4278954   -3.0447123 
H    -0.2024645    1.4278954   -3.0447123 
O    -1.0259769   -1.9188504   -2.9940304 
H    -1.4306825   -1.9188504   -2.6789007 
H    -0.6212712   -1.9188504   -2.6789007 
