15
Energy = -448.5756187979
O     0.3227377    0.0000000    0.0000000 
O    -0.3227377    0.0000000    0.0000000 
H     2.1131005    4.7120033   -1.1552778 
O     3.2973431    3.8229688    1.5897262 
H     2.8926374    3.8229688    1.9048560 
H     3.7020487    3.8229688    1.9048560 
O     4.1161570    3.3242473    0.1010666 
H     3.7114513    3.3242473    0.4161964 
H     4.5208626    3.3242473    0.4161964 
O     5.0514058    1.4081699    0.7131255 
H     4.6467002    1.4081699    1.0282553 
H     5.4561114    1.4081699    1.0282553 
O     2.1096508   -2.7370512    4.0113523 
H     1.7049452   -2.7370512    4.3264820 
H     2.5143564   -2.7370512    4.3264820 
