15
Energy = -448.6973921437
O     0.3227377    0.0000000    0.0000000 
O    -0.3227377    0.0000000    0.0000000 
H    -2.7710723    1.9376619    4.0705603 
O    -3.5475917    3.4240418    1.9255778 
H    -3.9522974    3.4240418    2.2407076 
H    -3.1428861    3.4240418    2.2407076 
O    -3.3010996   -1.5886003   -3.8148644 
H    -3.7058052   -1.5886003   -3.4997347 
H    -2.8963940   -1.5886003   -3.4997347 
O    -3.5134113    3.4949704   -1.8520261 
H    -3.9181169    3.4949704   -1.5368963 
H    -3.1087057    3.4949704   -1.5368963 
O    -1.6872124   -3.5221879    3.5745267 
H    -2.0919180   -3.5221879    3.8896565 
H    -1.2825067   -3.5221879    3.8896565 
