15
Energy = -448.3936922885
O     0.3227377    0.0000000    0.0000000 
O    -0.3227377    0.0000000    0.0000000 
H     2.7236139    1.8885002   -4.1253279 
O     3.0537912    2.2420155   -3.6909022 
H     2.6490856    2.2420155   -3.3757725 
H     3.4584968    2.2420155   -3.3757725 
O     0.0133465    3.6512684    3.8340251 
H    -0.3913591    3.6512684    4.1491549 
H     0.4180521    3.6512684    4.1491549 
O    -2.5264554    1.2015189    4.4955582 
H    -2.9311610    1.2015189    4.8106880 
H    -2.1217498    1.2015189    4.8106880 
O    -3.4882174    2.0463385   -3.4091045 
H    -3.8929230    2.0463385   -3.0939747 
H    -3.0835117    2.0463385   -3.0939747 
