15
Energy = -448.6121483117
O     0.3227377    0.0000000    0.0000000 
O    -0.3227377    0.0000000    0.0000000 
H     3.3330989   -3.2167929    2.5584236 
O    -4.3459612    2.1790079   -2.0860638 
H    -4.7506668    2.1790079   -1.7709340 
H    -3.9412556    2.1790079   -1.7709340 
O    -3.2950938    3.7188242   -1.8170978 
H    -3.6997994    3.7188242   -1.5019680 
H    -2.8903882    3.7188242   -1.5019680 
O     1.0473525   -5.1318638   -0.7511280 
H     0.6426468   -5.1318638   -0.4359982 
H     1.4520581   -5.1318638   -0.4359982 
O     4.2499591    2.2455546   -2.2094162 
H     3.8452535    2.2455546   -1.8942864 
H     4.6546647    2.2455546   -1.8942864 
