15
Energy = -448.6278665475
O     0.3227377    0.0000000    0.0000000 
O    -0.3227377    0.0000000    0.0000000 
H     3.1387966   -2.4330404   -3.4972998 
O    -3.9180156    3.4177495   -0.9816178 
H    -4.3227212    3.4177495   -0.6664881 
H    -3.5133099    3.4177495   -0.6664881 
O    -2.8190014   -4.4782617   -0.0314425 
H    -3.2237070   -4.4782617    0.2836873 
H    -2.4142958   -4.4782617    0.2836873 
O    -4.4589953    2.7679790    0.6808832 
H    -4.8637009    2.7679790    0.9960129 
H    -4.0542896    2.7679790    0.9960129 
O     0.2149940    4.4248918   -2.8905310 
H    -0.1897116    4.4248918   -2.5754012 
H     0.6196996    4.4248918   -2.5754012 
