15
Energy = -448.6989567393
O     0.3227377    0.0000000    0.0000000 
O    -0.3227377    0.0000000    0.0000000 
H    -3.1563241   -2.3752049   -3.5212009 
O    -0.6342129   -3.9844709    3.4278850 
H    -1.0389185   -3.9844709    3.7430148 
H    -0.2295073   -3.9844709    3.7430148 
O     1.2253054   -2.5088789   -4.4914541 
H     0.8205998   -2.5088789   -4.1763243 
H     1.6300110   -2.5088789   -4.1763243 
O    -1.7241243    4.4273724    2.3337012 
H    -2.1288299    4.4273724    2.6488310 
H    -1.3194186    4.4273724    2.6488310 
O    -4.6417757   -0.0515731    2.5442555 
H    -5.0464813   -0.0515731    2.8593852 
H    -4.2370701   -0.0515731    2.8593852 
