15
Energy = -448.6801225944
O     0.3227377    0.0000000    0.0000000 
O    -0.3227377    0.0000000    0.0000000 
H    -1.4178145   -0.5928248    5.0637137 
O    -2.8591509   -3.8999182   -2.1453587 
H    -3.2638565   -3.8999182   -1.8302290 
H    -2.4544452   -3.8999182   -1.8302290 
O    -4.1176810    0.7824819    3.2341300 
H    -4.5223866    0.7824819    3.5492598 
H    -3.7129754    0.7824819    3.5492598 
O     4.3338499   -2.4872895   -1.7380657 
H     3.9291442   -2.4872895   -1.4229359 
H     4.7385555   -2.4872895   -1.4229359 
O    -4.3333966    2.4983720    1.7307987 
H    -4.7381022    2.4983720    2.0459284 
H    -3.9286910    2.4983720    2.0459284 
