15
Energy = -448.6844220104
O     0.3227377    0.0000000    0.0000000 
O    -0.3227377    0.0000000    0.0000000 
H    -3.9175857   -3.0648506   -1.8061144 
O     3.2282089   -4.0609724   -1.0402696 
H     2.8235032   -4.0609724   -0.7251399 
H     3.6329145   -4.0609724   -0.7251399 
O    -1.0425644    0.1471003   -5.1822029 
H    -1.4472701    0.1471003   -4.8670731 
H    -0.6378588    0.1471003   -4.8670731 
O    -2.9803494   -4.1412035    1.4076119 
H    -3.3850550   -4.1412035    1.7227416 
H    -2.5756437   -4.1412035    1.7227416 
O    -0.3886787   -4.5996249   -2.5837471 
H    -0.7933843   -4.5996249   -2.2686173 
H     0.0160269   -4.5996249   -2.2686173 
