15
Energy = -448.7012351230
O     0.3227377    0.0000000    0.0000000 
O    -0.3227377    0.0000000    0.0000000 
H     3.5667041   -1.0856069   -3.7553849 
O     1.5437267   -1.6045582    4.8042995 
H     1.1390211   -1.6045582    5.1194293 
H     1.9484323   -1.6045582    5.1194293 
O    -3.9989989   -3.1556515   -1.4289629 
H    -4.4037045   -3.1556515   -1.1138332 
H    -3.5942933   -3.1556515   -1.1138332 
O     3.6513039    1.7337191    3.4191757 
H     3.2465983    1.7337191    3.7343055 
H     4.0560095    1.7337191    3.7343055 
O    -3.7741882    3.6184339    0.8194085 
H    -4.1788939    3.6184339    1.1345383 
H    -3.3694826    3.6184339    1.1345383 
