15
Energy = -448.6889927657
O     0.3227377    0.0000000    0.0000000 
O    -0.3227377    0.0000000    0.0000000 
H    -0.9298259    2.9852616   -1.9862091 
O     1.0980267    2.9420374    1.9684891 
H     0.6933211    2.9420374    2.2836189 
H     1.5027323    2.9420374    2.2836189 
O    -1.7776199   -2.3771834    2.2197193 
H    -2.1823256   -2.3771834    2.5348491 
H    -1.3729143   -2.3771834    2.5348491 
O     0.4861092   -0.2776104   -3.6579319 
H     0.0814035   -0.2776104   -3.3428021 
H     0.8908148   -0.2776104   -3.3428021 
O    -1.9120491    0.0613432   -3.1682530 
H    -2.3167547    0.0613432   -2.8531233 
H    -1.5073435    0.0613432   -2.8531233 
