15
Energy = -448.6906999425
O     0.3227377    0.0000000    0.0000000 
O    -0.3227377    0.0000000    0.0000000 
H     3.0410328   -1.4492012    4.0810258 
O     4.2318390    0.5918932    3.1253085 
H     3.8271334    0.5918932    3.4404382 
H     4.6365446    0.5918932    3.4404382 
O    -3.6764250    3.0624454    2.2638891 
H    -4.0811306    3.0624454    2.5790188 
H    -3.2717194    3.0624454    2.5790188 
O     1.1999684   -1.4754975   -4.9344355 
H     0.7952628   -1.4754975   -4.6193058 
H     1.6046741   -1.4754975   -4.6193058 
O     1.7546656    3.7959856   -3.2388392 
H     1.3499599    3.7959856   -2.9237094 
H     2.1593712    3.7959856   -2.9237094 
