15
Energy = -448.6818691775
O     0.3227377    0.0000000    0.0000000 
O    -0.3227377    0.0000000    0.0000000 
H    -4.0761338   -3.0872002    1.3627782 
O    -3.7682252   -2.6203515   -2.6300679 
H    -4.1729308   -2.6203515   -2.3149382 
H    -3.3635196   -2.6203515   -2.3149382 
O     4.2830271   -3.0249819    0.7165051 
H     3.8783215   -3.0249819    1.0316348 
H     4.6877327   -3.0249819    1.0316348 
O    -3.2177920    3.7649120   -1.8601262 
H    -3.6224976    3.7649120   -1.5449964 
H    -2.8130864    3.7649120   -1.5449964 
O     0.7196228    0.3987997   -5.2236573 
H     0.3149172    0.3987997   -4.9085275 
H     1.1243284    0.3987997   -4.9085275 
