15
Energy = -448.6283349369
O     0.3227377    0.0000000    0.0000000 
O    -0.3227377    0.0000000    0.0000000 
H     2.3817877    4.5266123    1.3563572 
O     2.9611446    4.3782936    0.2587222 
H     2.5564390    4.3782936    0.5738519 
H     3.3658503    4.3782936    0.5738519 
O     4.9564746    1.8524289    0.0723419 
H     4.5517690    1.8524289    0.3874717 
H     5.3611802    1.8524289    0.3874717 
O    -5.2653435    0.3611991   -0.3816308 
H    -5.6700491    0.3611991   -0.0665010 
H    -4.8606378    0.3611991   -0.0665010 
O    -4.4712649    0.6495367    2.7585292 
H    -4.8759705    0.6495367    3.0736590 
H    -4.0665592    0.6495367    3.0736590 
