15
Energy = -448.6205499428
O     0.3227377    0.0000000    0.0000000 
O    -0.3227377    0.0000000    0.0000000 
H    -1.9601180   -3.1497209   -3.7735967 
O     5.1891520    0.2368834   -1.0059009 
H     4.7844463    0.2368834   -0.6907712 
H     5.5938576    0.2368834   -0.6907712 
O    -3.1814273   -3.7828206    1.8936388 
H    -3.5861329   -3.7828206    2.2087686 
H    -2.7767216   -3.7828206    2.2087686 
O     4.5823574   -0.9567479   -2.4639207 
H     4.1776518   -0.9567479   -2.1487909 
H     4.9870631   -0.9567479   -2.1487909 
O     4.4657758    2.1770038   -1.8184148 
H     4.0610702    2.1770038   -1.5032851 
H     4.8704814    2.1770038   -1.5032851 
