15
Energy = -448.6866661233
O     0.3227377    0.0000000    0.0000000 
O    -0.3227377    0.0000000    0.0000000 
H    -1.6928260   -1.1762237   -4.8737741 
O     3.6552928    3.8030334    0.4263847 
H     3.2505872    3.8030334    0.7415145 
H     4.0599984    3.8030334    0.7415145 
O     2.9293697    3.6363601    2.4934461 
H     2.5246641    3.6363601    2.8085759 
H     3.3340753    3.6363601    2.8085759 
O    -3.5937703   -0.4166323    3.8656382 
H    -3.9984759   -0.4166323    4.1807680 
H    -3.1890646   -0.4166323    4.1807680 
O    -3.6505114    1.2503319   -3.6174608 
H    -4.0552170    1.2503319   -3.3023311 
H    -3.2458058    1.2503319   -3.3023311 
