15
Energy = -448.6901848773
O     0.3227377    0.0000000    0.0000000 
O    -0.3227377    0.0000000    0.0000000 
H     3.2739332   -2.9667347   -2.9125046 
O     5.0419734    1.4751540    0.6403654 
H     4.6372678    1.4751540    0.9554952 
H     5.4466790    1.4751540    0.9554952 
O    -4.3958190   -0.7466935    2.8536874 
H    -4.8005246   -0.7466935    3.1688171 
H    -3.9911133   -0.7466935    3.1688171 
O     4.0748001    2.3420169   -2.4280655 
H     3.6700945    2.3420169   -2.1129357 
H     4.4795058    2.3420169   -2.1129357 
O     0.3297665   -4.4236716   -2.8815812 
H    -0.0749391   -4.4236716   -2.5664514 
H     0.7344722   -4.4236716   -2.5664514 
