15
Energy = -448.6916702319
O     0.3227377    0.0000000    0.0000000 
O    -0.3227377    0.0000000    0.0000000 
H    -0.8233157   -5.0542282    1.3340783 
O    -1.2857169    3.8379833   -3.4049967 
H    -1.6904225    3.8379833   -3.0898669 
H    -0.8810113    3.8379833   -3.0898669 
O    -2.7893602   -3.1824643    3.1809057 
H    -3.1940659   -3.1824643    3.4960355 
H    -2.3846546   -3.1824643    3.4960355 
O     3.3081413   -2.3533525    3.3979903 
H     2.9034357   -2.3533525    3.7131201 
H     3.7128469   -2.3533525    3.7131201 
O    -2.5018376    4.4285621   -1.4561954 
H    -2.9065432    4.4285621   -1.1410657 
H    -2.0971319    4.4285621   -1.1410657 
