15
Energy = -448.7002227267
O     0.3227377    0.0000000    0.0000000 
O    -0.3227377    0.0000000    0.0000000 
H    -2.5650589    1.3882829   -2.2835352 
O     0.7782464   -2.4871419    2.6362248 
H     0.3735407   -2.4871419    2.9513546 
H     1.1829520   -2.4871419    2.9513546 
O    -2.0289092   -1.2300042   -2.8408808 
H    -2.4336148   -1.2300042   -2.5257511 
H    -1.6242036   -1.2300042   -2.5257511 
O     1.2221433    0.3009039   -3.4800857 
H     0.8174377    0.3009039   -3.1649560 
H     1.6268489    0.3009039   -3.1649560 
O     1.1422654   -3.4794000   -0.5533666 
H     0.7375598   -3.4794000   -0.2382369 
H     1.5469710   -3.4794000   -0.2382369 
