15
Energy = -448.5264420034
O     0.3227377    0.0000000    0.0000000 
O    -0.3227377    0.0000000    0.0000000 
H     4.6454379    0.8978412    2.3699418 
O     4.1279269    3.2853790    0.4152742 
H     3.7232213    3.2853790    0.7304039 
H     4.5326326    3.2853790    0.7304039 
O     3.3652820   -3.8207443   -1.4383265 
H     2.9605764   -3.8207443   -1.1231967 
H     3.7699876   -3.8207443   -1.1231967 
O     0.7707067   -3.0421063   -4.2570379 
H     0.3660011   -3.0421063   -3.9419081 
H     1.1754123   -3.0421063   -3.9419081 
O     2.9562576   -3.2585613   -2.9365001 
H     2.5515519   -3.2585613   -2.6213704 
H     3.3609632   -3.2585613   -2.6213704 
