15
Energy = -448.7010963682
O     0.3227377    0.0000000    0.0000000 
O    -0.3227377    0.0000000    0.0000000 
H     4.0368990    2.1961093   -2.6236208 
O     2.9589613   -4.3706388    0.3844229 
H     2.5542557   -4.3706388    0.6995527 
H     3.3636669   -4.3706388    0.6995527 
O     5.2770962    0.3851213   -0.0785345 
H     4.8723906    0.3851213    0.2365953 
H     5.6818018    0.3851213    0.2365953 
O    -0.6107609   -4.4177950    2.8520789 
H    -1.0154665   -4.4177950    3.1672086 
H    -0.2060553   -4.4177950    3.1672086 
O    -2.8706344    3.1005853    3.1894614 
H    -3.2753400    3.1005853    3.5045912 
H    -2.4659287    3.1005853    3.5045912 
