15
Energy = -448.6957225679
O     0.3227377    0.0000000    0.0000000 
O    -0.3227377    0.0000000    0.0000000 
H    -4.9726765    1.7789125   -0.3328586 
O     1.3523352    4.9703303   -1.2086060 
H     0.9476296    4.9703303   -0.8934763 
H     1.7570408    4.9703303   -0.8934763 
O     2.4246139    3.4417241    3.2097930 
H     2.0199083    3.4417241    3.5249227 
H     2.8293195    3.4417241    3.5249227 
O     4.1166671    1.8592992   -2.7528448 
H     3.7119615    1.8592992   -2.4377151 
H     4.5213727    1.8592992   -2.4377151 
O     4.1155097   -3.0566252    1.3161889 
H     3.7108041   -3.0566252    1.6313186 
H     4.5202154   -3.0566252    1.6313186 
