15
Energy = -448.7173316503
O     0.3227377    0.0000000    0.0000000 
O    -0.3227377    0.0000000    0.0000000 
H    -1.3050810    3.4161587   -0.5899262 
O    -0.1283834   -2.5929770    2.6459941 
H    -0.5330890   -2.5929770    2.9611239 
H     0.2763222   -2.5929770    2.9611239 
O     0.6655557   -3.6211484   -0.4033101 
H     0.2608501   -3.6211484   -0.0881804 
H     1.0702613   -3.6211484   -0.0881804 
O    -2.1826266    2.1608512    2.0745741 
H    -2.5873322    2.1608512    2.3897039 
H    -1.7779210    2.1608512    2.3897039 
O     2.4064430   -1.0030751   -2.6276348 
H     2.0017374   -1.0030751   -2.3125051 
H     2.8111486   -1.0030751   -2.3125051 
