15
Energy = -448.4402123905
O     0.3227377    0.0000000    0.0000000 
O    -0.3227377    0.0000000    0.0000000 
H     4.0198840   -3.0990943   -1.4963233 
O     4.4035688    2.5828730   -1.3891408 
H     3.9988632    2.5828730   -1.0740110 
H     4.8082744    2.5828730   -1.0740110 
O     3.7749660    2.4276663   -2.7996092 
H     3.3702604    2.4276663   -2.4844795 
H     4.1796716    2.4276663   -2.4844795 
O    -2.9712527   -1.6757000    4.0493204 
H    -3.3759583   -1.6757000    4.3644502 
H    -2.5665471   -1.6757000    4.3644502 
O    -2.4958119   -1.2053681   -4.5041005 
H    -2.9005176   -1.2053681   -4.1889707 
H    -2.0911063   -1.2053681   -4.1889707 
