15
Energy = -448.6861988490
O     0.3227377    0.0000000    0.0000000 
O    -0.3227377    0.0000000    0.0000000 
H    -3.2627308   -3.9722556    1.2564272 
O     2.4588562   -3.8563621    2.6655935 
H     2.0541506   -3.8563621    2.9807232 
H     2.8635618   -3.8563621    2.9807232 
O    -4.5393560   -1.3677896   -2.3470302 
H    -4.9440616   -1.3677896   -2.0319004 
H    -4.1346503   -1.3677896   -2.0319004 
O    -2.3952477   -3.8379984   -2.7413025 
H    -2.7999533   -3.8379984   -2.4261728 
H    -1.9905421   -3.8379984   -2.4261728 
O     3.6792945   -2.3439958   -2.9914503 
H     3.2745889   -2.3439958   -2.6763206 
H     4.0840001   -2.3439958   -2.6763206 
