15
Energy = -448.6852039029
O     0.3227377    0.0000000    0.0000000 
O    -0.3227377    0.0000000    0.0000000 
H     1.0690691   -4.6692069   -2.2490963 
O    -0.7426970    3.5740359   -3.8273587 
H    -1.1474027    3.5740359   -3.5122289 
H    -0.3379914    3.5740359   -3.5122289 
O    -3.7083331    2.7505480    2.5894147 
H    -4.1130387    2.7505480    2.9045445 
H    -3.3036275    2.7505480    2.9045445 
O     3.9884780   -3.0615765   -1.6459714 
H     3.5837724   -3.0615765   -1.3308416 
H     4.3931836   -3.0615765   -1.3308416 
O    -3.6986360   -2.3352401   -2.9744199 
H    -4.1033416   -2.3352401   -2.6592901 
H    -3.2939303   -2.3352401   -2.6592901 
