15
Energy = -448.6877353230
O     0.3227377    0.0000000    0.0000000 
O    -0.3227377    0.0000000    0.0000000 
H    -3.1428219   -3.3700149   -2.6016354 
O    -4.0860578   -3.0427218   -1.4276025 
H    -4.4907635   -3.0427218   -1.1124728 
H    -3.6813522   -3.0427218   -1.1124728 
O     0.1441512   -2.9538217    4.3920436 
H    -0.2605544   -2.9538217    4.7071734 
H     0.5488568   -2.9538217    4.7071734 
O     0.1136007    3.6134392    3.8680869 
H    -0.2911049    3.6134392    4.1832167 
H     0.5183063    3.6134392    4.1832167 
O     1.4913924    2.0970590   -4.6201871 
H     1.0866868    2.0970590   -4.3050574 
H     1.8960980    2.0970590   -4.3050574 
