15
Energy = -448.7000009816
O     0.3227377    0.0000000    0.0000000 
O    -0.3227377    0.0000000    0.0000000 
H    -0.0650507    0.0320844   -3.7035292 
O     1.5055460    0.9406534    3.2549015 
H     1.1008404    0.9406534    3.5700313 
H     1.9102516    0.9406534    3.5700313 
O     2.8865876    1.5750724    1.7090939 
H     2.4818820    1.5750724    2.0242236 
H     3.2912932    1.5750724    2.0242236 
O     2.5258039   -1.4764766   -2.2681777 
H     2.1210983   -1.4764766   -1.9530480 
H     2.9305095   -1.4764766   -1.9530480 
O     0.4285804   -1.9718707    3.1101184 
H     0.0238748   -1.9718707    3.4252481 
H     0.8332860   -1.9718707    3.4252481 
