15
Energy = -448.5380572807
O     0.3227377    0.0000000    0.0000000 
O    -0.3227377    0.0000000    0.0000000 
H     2.9703085   -0.0785881   -2.2118953 
O     2.1034318   -0.3071408   -3.0298190 
H     1.6987262   -0.3071408   -2.7146893 
H     2.5081374   -0.3071408   -2.7146893 
O    -0.0943537   -1.8644620   -3.1956524 
H    -0.4990593   -1.8644620   -2.8805227 
H     0.3103519   -1.8644620   -2.8805227 
O     2.4973829   -2.6225149    0.7827920 
H     2.0926773   -2.6225149    1.0979217 
H     2.9020885   -2.6225149    1.0979217 
O    -1.5764182    2.6789224   -2.0110979 
H    -1.9811238    2.6789224   -1.6959681 
H    -1.1717126    2.6789224   -1.6959681 
