15
Energy = -448.6361972634
O     0.3227377    0.0000000    0.0000000 
O    -0.3227377    0.0000000    0.0000000 
H    -3.3291835   -0.5956671   -1.5109955 
O    -1.5893537    1.9725694   -2.6988850 
H    -1.9940593    1.9725694   -2.3837553 
H    -1.1846481    1.9725694   -2.3837553 
O     3.2255033    0.6749067    1.6955148 
H     2.8207977    0.6749067    2.0106445 
H     3.6302089    0.6749067    2.0106445 
O     3.0384285    2.0796652    0.4091464 
H     2.6337229    2.0796652    0.7242762 
H     3.4431341    2.0796652    0.7242762 
O     2.7256603    1.2111214   -2.1929036 
H     2.3209547    1.2111214   -1.8777739 
H     3.1303659    1.2111214   -1.8777739 
