15
Energy = -448.6814668800
O     0.3227377    0.0000000    0.0000000 
O    -0.3227377    0.0000000    0.0000000 
H    -3.7477113    3.7032945    0.4930576 
O    -4.1815461   -0.8276898   -3.1319074 
H    -4.5862517   -0.8276898   -2.8167777 
H    -3.7768404   -0.8276898   -2.8167777 
O     4.2098305   -1.8684642   -2.6018074 
H     3.8051249   -1.8684642   -2.2866777 
H     4.6145361   -1.8684642   -2.2866777 
O     1.0371173   -5.1271452    0.8035178 
H     0.6324117   -5.1271452    1.1186476 
H     1.4418230   -5.1271452    1.1186476 
O    -1.4281228    2.5571028   -4.4035620 
H    -1.8328284    2.5571028   -4.0884323 
H    -1.0234171    2.5571028   -4.0884323 
