15
Energy = -448.6762413415
O     0.3227377    0.0000000    0.0000000 
O    -0.3227377    0.0000000    0.0000000 
H     4.7850118   -2.0121037   -1.0285606 
O     2.7775418    1.7581260   -4.1431730 
H     2.3728362    1.7581260   -3.8280433 
H     3.1822474    1.7581260   -3.8280433 
O    -2.8969171   -2.8195494   -3.4110340 
H    -3.3016227   -2.8195494   -3.0959042 
H    -2.4922115   -2.8195494   -3.0959042 
O     3.1916450   -3.0747490   -2.8879750 
H     2.7869393   -3.0747490   -2.5728452 
H     3.5963506   -3.0747490   -2.5728452 
O    -2.6594610    3.9649213   -2.2786691 
H    -3.0641666    3.9649213   -1.9635393 
H    -2.2547554    3.9649213   -1.9635393 
