15
Energy = -448.6893763915
O     0.3227377    0.0000000    0.0000000 
O    -0.3227377    0.0000000    0.0000000 
H     0.6508589    4.2586549    3.0729590 
O    -3.4029750    3.9533891    0.8944449 
H    -3.8076806    3.9533891    1.2095746 
H    -2.9982694    3.9533891    1.2095746 
O     1.9974299    4.7830697    1.0692943 
H     1.5927243    4.7830697    1.3844240 
H     2.4021355    4.7830697    1.3844240 
O    -4.5085573    2.5157697   -1.1566882 
H    -4.9132629    2.5157697   -0.8415584 
H    -4.1038516    2.5157697   -0.8415584 
O     3.6419841    0.5439234   -3.7966218 
H     3.2372785    0.5439234   -3.4814920 
H     4.0466897    0.5439234   -3.4814920 
