15
Energy = -448.6858794028
O     0.3227377    0.0000000    0.0000000 
O    -0.3227377    0.0000000    0.0000000 
H    -0.2844634    4.6827833   -2.4481539 
O     2.3885885   -4.2632365   -2.0265792 
H     1.9838828   -4.2632365   -1.7114494 
H     2.7932941   -4.2632365   -1.7114494 
O     3.3022130    2.3447774   -3.4021487 
H     2.8975074    2.3447774   -3.0870189 
H     3.7069187    2.3447774   -3.0870189 
O    -1.9760742    1.3686694   -4.7105447 
H    -2.3807798    1.3686694   -4.3954150 
H    -1.5713685    1.3686694   -4.3954150 
O     1.8867728    1.6934585    4.6486673 
H     1.4820672    1.6934585    4.9637971 
H     2.2914784    1.6934585    4.9637971 
