15
Energy = -448.6885987424
O     0.3227377    0.0000000    0.0000000 
O    -0.3227377    0.0000000    0.0000000 
H     4.6665914    1.6625776    1.8605367 
O     1.1514045    1.7294986   -4.8630557 
H     0.7466989    1.7294986   -4.5479260 
H     1.5561101    1.7294986   -4.5479260 
O    -3.0597621   -3.8308497   -1.9875372 
H    -3.4644677   -3.8308497   -1.6724075 
H    -2.6550565   -3.8308497   -1.6724075 
O     3.8895351    3.2251114   -1.5688159 
H     3.4848295    3.2251114   -1.2536862 
H     4.2942407    3.2251114   -1.2536862 
O    -3.6443786   -0.8071494    3.7547444 
H    -4.0490842   -0.8071494    4.0698742 
H    -3.2396730   -0.8071494    4.0698742 
