15
Energy = -448.6934921339
O     0.3227377    0.0000000    0.0000000 
O    -0.3227377    0.0000000    0.0000000 
H    -3.3808485   -3.6423299   -1.8182773 
O     4.0219712   -1.6647737   -3.0054070 
H     3.6172655   -1.6647737   -2.6902772 
H     4.4266768   -1.6647737   -2.6902772 
O    -2.5226160    3.6006877    2.9489796 
H    -2.9273217    3.6006877    3.2641094 
H    -2.1179104    3.6006877    3.2641094 
O     0.0189210   -3.8681672   -3.6072964 
H    -0.3857846   -3.8681672   -3.2921666 
H     0.4236267   -3.8681672   -3.2921666 
O    -2.5280461   -3.3084632    3.2696319 
H    -2.9327517   -3.3084632    3.5847617 
H    -2.1233405   -3.3084632    3.5847617 
