15
Energy = -448.7049959447
O     0.3227377    0.0000000    0.0000000 
O    -0.3227377    0.0000000    0.0000000 
H    -2.3433454   -0.6511595    2.7939422 
O     1.1692146    3.0867612   -1.6773757 
H     0.7645090    3.0867612   -1.3622459 
H     1.5739202    3.0867612   -1.3622459 
O    -1.5647339   -2.1665981    2.5686914 
H    -1.9694395   -2.1665981    2.8838211 
H    -1.1600283   -2.1665981    2.8838211 
O     3.2518878    0.6962907   -1.6277364 
H     2.8471821    0.6962907   -1.3126066 
H     3.6565934    0.6962907   -1.3126066 
O     2.0484000    0.4700747    3.0540885 
H     1.6436944    0.4700747    3.3692183 
H     2.4531056    0.4700747    3.3692183 
