15
Energy = -448.6897823716
O     0.3227377    0.0000000    0.0000000 
O    -0.3227377    0.0000000    0.0000000 
H     1.8464157    1.2288359   -2.9668335 
O    -1.3658251    2.1831105    2.6664586 
H    -1.7705307    2.1831105    2.9815884 
H    -0.9611195    2.1831105    2.9815884 
O     1.4244731    2.5551415   -2.2685731 
H     1.0197674    2.5551415   -1.9534433 
H     1.8291787    2.5551415   -1.9534433 
O    -2.3984136   -2.6404646   -0.9947086 
H    -2.8031192   -2.6404646   -0.6795789 
H    -1.9937080   -2.6404646   -0.6795789 
O     2.4782107   -0.9930684   -2.5640510 
H     2.0735051   -0.9930684   -2.2489213 
H     2.8829163   -0.9930684   -2.2489213 
