15
Energy = -448.6705542249
O     0.3227377    0.0000000    0.0000000 
O    -0.3227377    0.0000000    0.0000000 
H    -4.5415310    1.3608255    2.3506353 
O     0.8198941   -3.5557857   -3.8285974 
H     0.4151885   -3.5557857   -3.5134677 
H     1.2245997   -3.5557857   -3.5134677 
O     0.3544622   -1.6768184   -5.0027785 
H    -0.0502434   -1.6768184   -4.6876488 
H     0.7591678   -1.6768184   -4.6876488 
O    -5.1826997   -0.8256293    0.6825837 
H    -5.5874054   -0.8256293    0.9977135 
H    -4.7779941   -0.8256293    0.9977135 
O     2.0438007    3.9818198    2.8270295 
H     1.6390951    3.9818198    3.1421593 
H     2.4485064    3.9818198    3.1421593 
