15
Energy = -448.4673861440
O     0.3227377    0.0000000    0.0000000 
O    -0.3227377    0.0000000    0.0000000 
H     0.1638958    3.1719649   -1.9060866 
O    -2.2627681    2.9125318   -0.3403704 
H    -2.6674737    2.9125318   -0.0252407 
H    -1.8580625    2.9125318   -0.0252407 
O    -2.7597712    1.9752308   -1.4806599 
H    -3.1644768    1.9752308   -1.1655301 
H    -2.3550656    1.9752308   -1.1655301 
O     1.1023376    3.5053127    0.4717649 
H     0.6976319    3.5053127    0.7868946 
H     1.5070432    3.5053127    0.7868946 
O     3.4062141   -0.9512309    1.1056969 
H     3.0015085   -0.9512309    1.4208267 
H     3.8109197   -0.9512309    1.4208267 
