15
Energy = -448.6982718491
O     0.3227377    0.0000000    0.0000000 
O    -0.3227377    0.0000000    0.0000000 
H    -1.7394195    4.9969429    0.0884164 
O    -2.9157062    3.1844648   -3.0557579 
H    -3.3204118    3.1844648   -2.7406282 
H    -2.5110005    3.1844648   -2.7406282 
O     1.1787610    4.3054516    2.8456732 
H     0.7740553    4.3054516    3.1608029 
H     1.5834666    4.3054516    3.1608029 
O     3.6595026    3.7350784    0.8162090 
H     3.2547970    3.7350784    1.1313388 
H     4.0642082    3.7350784    1.1313388 
O    -3.2281243    2.8703648    3.0604058 
H    -3.6328299    2.8703648    3.3755355 
H    -2.8234186    2.8703648    3.3755355 
