15
Energy = -448.6768533872
O     0.3227377    0.0000000    0.0000000 
O    -0.3227377    0.0000000    0.0000000 
H     5.1554807   -0.3670776   -1.1353895 
O     3.9892044    2.8927573   -1.9252351 
H     3.5844988    2.8927573   -1.6101054 
H     4.3939100    2.8927573   -1.6101054 
O     4.1649444   -0.9813777   -3.1095893 
H     3.7602388   -0.9813777   -2.7944596 
H     4.5696500   -0.9813777   -2.7944596 
O    -1.3619166   -5.0216519   -0.9611352 
H    -1.7666222   -5.0216519   -0.6460055 
H    -0.9572109   -5.0216519   -0.6460055 
O    -2.4789943    0.3949844   -4.6547128 
H    -2.8837000    0.3949844   -4.3395831 
H    -2.0742887    0.3949844   -4.3395831 
