15
Energy = -448.6857588611
O     0.3227377    0.0000000    0.0000000 
O    -0.3227377    0.0000000    0.0000000 
H     3.2612778    0.8118694   -4.0875140 
O    -0.0833051    4.2097564   -3.2015199 
H    -0.4880107    4.2097564   -2.8863901 
H     0.3214005    4.2097564   -2.8863901 
O    -1.0905581   -4.0395028    3.2435077 
H    -1.4952637   -4.0395028    3.5586374 
H    -0.6858525   -4.0395028    3.5586374 
O     2.8154664   -3.5949539   -2.6706124 
H     2.4107608   -3.5949539   -2.3554827 
H     3.2201720   -3.5949539   -2.3554827 
O    -3.0710008    3.5702876   -2.4097054 
H    -3.4757064    3.5702876   -2.0945756 
H    -2.6662952    3.5702876   -2.0945756 
