15
Energy = -448.6843651355
O     0.3227377    0.0000000    0.0000000 
O    -0.3227377    0.0000000    0.0000000 
H     5.2612344   -0.5412793    0.1710706 
O    -3.4969386   -1.0483638   -3.8270566 
H    -3.9016442   -1.0483638   -3.5119268 
H    -3.0922330   -1.0483638   -3.5119268 
O     2.2889406   -4.7709620    0.0426128 
H     1.8842349   -4.7709620    0.3577426 
H     2.6936462   -4.7709620    0.3577426 
O    -3.8908927    3.2516065    1.5173182 
H    -4.2955983    3.2516065    1.8324480 
H    -3.4861871    3.2516065    1.8324480 
O     2.6346920   -1.5478543   -4.3165806 
H     2.2299864   -1.5478543   -4.0014508 
H     3.0393976   -1.5478543   -4.0014508 
