15
Energy = -448.7000696906
O     0.3227377    0.0000000    0.0000000 
O    -0.3227377    0.0000000    0.0000000 
H     2.1089002   -4.4021744   -2.0435843 
O     4.8369930    1.4910080    1.5475358 
H     4.4322874    1.4910080    1.8626655 
H     5.2416986    1.4910080    1.8626655 
O    -4.8155899    1.4748351    1.6278924 
H    -5.2202955    1.4748351    1.9430222 
H    -4.4108843    1.4748351    1.9430222 
O     3.7857551   -2.1847786   -2.9791262 
H     3.3810495   -2.1847786   -2.6639965 
H     4.1904607   -2.1847786   -2.6639965 
O     0.4990893   -1.3953604    5.0837955 
H     0.0943837   -1.3953604    5.3989252 
H     0.9037949   -1.3953604    5.3989252 
