15
Energy = -448.5942612544
O     0.3227377    0.0000000    0.0000000 
O    -0.3227377    0.0000000    0.0000000 
H     1.6694104   -2.6898200   -4.2403742 
O    -4.1770975    3.2099434    0.5047196 
H    -4.5818031    3.2099434    0.8198493 
H    -3.7723919    3.2099434    0.8198493 
O    -0.1979339    3.8918809    3.5838373 
H    -0.6026396    3.8918809    3.8989670 
H     0.2067717    3.8918809    3.8989670 
O     2.2629556   -3.2469329    3.5164977 
H     1.8582500   -3.2469329    3.8316274 
H     2.6676613   -3.2469329    3.8316274 
O    -3.9404966    2.7971041    2.1605053 
H    -4.3452022    2.7971041    2.4756351 
H    -3.5357910    2.7971041    2.4756351 
