15
Energy = -448.7027805506
O     0.3227377    0.0000000    0.0000000 
O    -0.3227377    0.0000000    0.0000000 
H    -0.8612156    2.4311866   -4.6206575 
O    -0.7846258    0.5843845    5.2043119 
H    -1.1893314    0.5843845    5.5194416 
H    -0.3799201    0.5843845    5.5194416 
O    -3.9579324   -0.9835539    3.3757414 
H    -4.3626380   -0.9835539    3.6908712 
H    -3.5532268   -0.9835539    3.6908712 
O    -3.3344098    3.3228769    2.4210018 
H    -3.7391154    3.3228769    2.7361315 
H    -2.9297042    3.3228769    2.7361315 
O    -2.9470654   -3.4917674   -2.6655429 
H    -3.3517710   -3.4917674   -2.3504131 
H    -2.5423598   -3.4917674   -2.3504131 
