15
Energy = -448.6643649101
O     0.3227377    0.0000000    0.0000000 
O    -0.3227377    0.0000000    0.0000000 
H     2.1222201    2.9881983    0.5368824 
O     2.4676166   -1.6221068   -2.2325333 
H     2.0629109   -1.6221068   -1.9174036 
H     2.8723222   -1.6221068   -1.9174036 
O    -2.6077430    2.4778115    0.8877985 
H    -3.0124486    2.4778115    1.2029283 
H    -2.2030374    2.4778115    1.2029283 
O     2.6413821    2.2875481    1.2332417 
H     2.2366765    2.2875481    1.5483714 
H     3.0460877    2.2875481    1.5483714 
O    -1.0061073   -3.1522756   -1.6612570 
H    -1.4108129   -3.1522756   -1.3461273 
H    -0.6014017   -3.1522756   -1.3461273 
