15
Energy = -448.6891623108
O     0.3227377    0.0000000    0.0000000 
O    -0.3227377    0.0000000    0.0000000 
H    -2.9246227   -3.1488796    3.0877136 
O     1.1625561   -5.1537603   -0.2963259 
H     0.7578504   -5.1537603    0.0188039 
H     1.5672617   -5.1537603    0.0188039 
O     0.4360607    3.5033834   -3.9381884 
H     0.0313550    3.5033834   -3.6230586 
H     0.8407663    3.5033834   -3.6230586 
O     3.3955519   -3.4876151    2.0797231 
H     2.9908463   -3.4876151    2.3948529 
H     3.8002576   -3.4876151    2.3948529 
O     3.0583047   -4.0270819   -1.5557933 
H     2.6535990   -4.0270819   -1.2406636 
H     3.4630103   -4.0270819   -1.2406636 
