15
Energy = -448.6982991962
O     0.3227377    0.0000000    0.0000000 
O    -0.3227377    0.0000000    0.0000000 
H     4.8971051    2.0020345    0.1142597 
O     1.3099156   -2.5980551    4.4238399 
H     0.9052099   -2.5980551    4.7389696 
H     1.7146212   -2.5980551    4.7389696 
O    -3.5114196   -2.6176441    2.9737322 
H    -3.9161252   -2.6176441    3.2888620 
H    -3.1067139   -2.6176441    3.2888620 
O     2.9481904    3.2801328   -2.9205712 
H     2.5434847    3.2801328   -2.6054414 
H     3.3528960    3.2801328   -2.6054414 
O    -2.2261324   -4.3191469   -2.0919789 
H    -2.6308381   -4.3191469   -1.7768492 
H    -1.8214268   -4.3191469   -1.7768492 
