15
Energy = -448.6247499790
O     0.3227377    0.0000000    0.0000000 
O    -0.3227377    0.0000000    0.0000000 
H     4.7408270    0.0582551    2.3503196 
O    -1.4641545   -4.3967473    2.5587010 
H    -1.8688602   -4.3967473    2.8738308 
H    -1.0594489   -4.3967473    2.8738308 
O    -3.4124862   -3.4132285   -2.1659464 
H    -3.8171919   -3.4132285   -1.8508166 
H    -3.0077806   -3.4132285   -1.8508166 
O    -3.6863067   -3.7729872   -0.4187836 
H    -4.0910123   -3.7729872   -0.1036539 
H    -3.2816011   -3.7729872   -0.1036539 
O    -2.9453313    2.5913280    3.5552260 
H    -3.3500369    2.5913280    3.8703557 
H    -2.5406256    2.5913280    3.8703557 
