15
Energy = -448.6891224648
O     0.3227377    0.0000000    0.0000000 
O    -0.3227377    0.0000000    0.0000000 
H    -1.9431276   -4.2064735    2.5559091 
O    -1.3588691   -5.1016580   -0.3559526 
H    -1.7635747   -5.1016580   -0.0408228 
H    -0.9541635   -5.1016580   -0.0408228 
O     3.1249748   -2.4086614   -3.5226669 
H     2.7202692   -2.4086614   -3.2075372 
H     3.5296805   -2.4086614   -3.2075372 
O    -4.1520625   -3.2616562    0.3570515 
H    -4.5567682   -3.2616562    0.6721813 
H    -3.7473569   -3.2616562    0.6721813 
O     4.2174801    3.1903412   -0.1896804 
H     3.8127745    3.1903412    0.1254494 
H     4.6221857    3.1903412    0.1254494 
