15
Energy = -448.6887657542
O     0.3227377    0.0000000    0.0000000 
O    -0.3227377    0.0000000    0.0000000 
H    -1.5021350    1.7969399    4.7452538 
O    -4.4639207   -2.1918002   -1.8051745 
H    -4.8686263   -2.1918002   -1.4900448 
H    -4.0592151   -2.1918002   -1.4900448 
O    -0.0442975   -3.9296392   -3.5400766 
H    -0.4490031   -3.9296392   -3.2249468 
H     0.3604081   -3.9296392   -3.2249468 
O     4.9736951    0.0655312    1.8095604 
H     4.5689895    0.0655312    2.1246901 
H     5.3784007    0.0655312    2.1246901 
O    -2.9990544    2.6533427    3.4632849 
H    -3.4037600    2.6533427    3.7784146 
H    -2.5943488    2.6533427    3.7784146 
