15
Energy = -448.6944667483
O     0.3227377    0.0000000    0.0000000 
O    -0.3227377    0.0000000    0.0000000 
H    -3.5965770   -1.7279811    3.4758526 
O    -2.8386569    0.4984493   -4.4342995 
H    -3.2433625    0.4984493   -4.1191697 
H    -2.4339512    0.4984493   -4.1191697 
O    -1.6101539   -4.8638323   -1.3203864 
H    -2.0148595   -4.8638323   -1.0052567 
H    -1.2054483   -4.8638323   -1.0052567 
O    -0.9156560    1.2036531    5.0748225 
H    -1.3203616    1.2036531    5.3899522 
H    -0.5109504    1.2036531    5.3899522 
O     4.5880138    2.4641058    0.9424595 
H     4.1833082    2.4641058    1.2575893 
H     4.9927194    2.4641058    1.2575893 
