15
Energy = -448.6868066325
O     0.3227377    0.0000000    0.0000000 
O    -0.3227377    0.0000000    0.0000000 
H    -4.5911036    2.0657434    1.6301251 
O    -4.7741741   -2.2219164    0.5264358 
H    -5.1788797   -2.2219164    0.8415656 
H    -4.3694685   -2.2219164    0.8415656 
O     4.0134461   -0.2708097    3.4420414 
H     3.6087405   -0.2708097    3.7571712 
H     4.4181517   -0.2708097    3.7571712 
O     1.6445633    4.2932630   -2.6165676 
H     1.2398577    4.2932630   -2.3014378 
H     2.0492689    4.2932630   -2.3014378 
O     2.5355586    2.2263735   -4.0726359 
H     2.1308530    2.2263735   -3.7575061 
H     2.9402643    2.2263735   -3.7575061 
