15
Energy = -448.6391257700
O     0.3227377    0.0000000    0.0000000 
O    -0.3227377    0.0000000    0.0000000 
H    -1.2084653    0.4679255   -3.4701653 
O     2.4396840   -2.7722749   -0.2857586 
H     2.0349784   -2.7722749    0.0293712 
H     2.8443896   -2.7722749    0.0293712 
O     2.8646946   -1.6017902   -1.7135541 
H     2.4599890   -1.6017902   -1.3984243 
H     3.2694002   -1.6017902   -1.3984243 
O     1.4115123   -2.7427979    2.0546381 
H     1.0068066   -2.7427979    2.3697678 
H     1.8162179   -2.7427979    2.3697678 
O     1.7649226    1.3838494   -2.9443534 
H     1.3602170    1.3838494   -2.6292236 
H     2.1696282    1.3838494   -2.6292236 
