15
Energy = -448.6832265304
O     0.3227377    0.0000000    0.0000000 
O    -0.3227377    0.0000000    0.0000000 
H    -3.3394618   -2.4898069    3.2636931 
O     3.4946968    3.7557245   -1.2941044 
H     3.0899912    3.7557245   -0.9789746 
H     3.8994024    3.7557245   -0.9789746 
O     4.4406507    0.8663565   -2.7408456 
H     4.0359450    0.8663565   -2.4257158 
H     4.8453563    0.8663565   -2.4257158 
O    -3.7550572   -3.7230826    0.2063417 
H    -4.1597628   -3.7230826    0.5214715 
H    -3.3503515   -3.7230826    0.5214715 
O     1.6131700   -3.4646502   -3.6563883 
H     1.2084644   -3.4646502   -3.3412585 
H     2.0178756   -3.4646502   -3.3412585 
