15
Energy = -448.4810347041
O     0.3227377    0.0000000    0.0000000 
O    -0.3227377    0.0000000    0.0000000 
H     3.3956895    1.3638757   -0.5749135 
O    -0.4410166   -2.6543285    2.5496306 
H    -0.8457223   -2.6543285    2.8647603 
H    -0.0363110   -2.6543285    2.8647603 
O     0.1495252   -3.2816871   -1.7078317 
H    -0.2551804   -3.2816871   -1.3927020 
H     0.5542308   -3.2816871   -1.3927020 
O    -2.9977288   -0.3467911   -2.1444319 
H    -3.4024344   -0.3467911   -1.8293022 
H    -2.5930232   -0.3467911   -1.8293022 
O    -2.2101652    0.8344007   -2.8493627 
H    -2.6148709    0.8344007   -2.5342330 
H    -1.8054596    0.8344007   -2.5342330 
