15
Energy = -448.3485955971
O     0.3227377    0.0000000    0.0000000 
O    -0.3227377    0.0000000    0.0000000 
H    -2.3273686   -2.7448283   -0.8778741 
O     0.9559879   -1.2919207   -3.3336623 
H     0.5512823   -1.2919207   -3.0185326 
H     1.3606935   -1.2919207   -3.0185326 
O    -0.9434357   -3.5608403    0.3932960 
H    -1.3481413   -3.5608403    0.7084257 
H    -0.5387301   -3.5608403    0.7084257 
O    -0.5527682   -0.9436171    3.5428920 
H    -0.9574739   -0.9436171    3.8580217 
H    -0.1480626   -0.9436171    3.8580217 
O     0.8163112   -1.4845425    3.2978742 
H     0.4116056   -1.4845425    3.6130040 
H     1.2210168   -1.4845425    3.6130040 
