15
Energy = -448.5922408166
O     0.3227377    0.0000000    0.0000000 
O    -0.3227377    0.0000000    0.0000000 
H    -1.9380506    2.5836294   -1.8138933 
O    -3.1541193   -1.8923610    0.4418180 
H    -3.5588249   -1.8923610    0.7569478 
H    -2.7494137   -1.8923610    0.7569478 
O    -2.8357626   -1.1466273   -2.0855143 
H    -3.2404683   -1.1466273   -1.7703846 
H    -2.4310570   -1.1466273   -1.7703846 
O    -3.3728517   -0.4817293    1.4574487 
H    -3.7775573   -0.4817293    1.7725784 
H    -2.9681461   -0.4817293    1.7725784 
O     3.2619331   -1.0850178    1.3835900 
H     2.8572275   -1.0850178    1.6987198 
H     3.6666387   -1.0850178    1.6987198 
