15
Energy = -448.6915341418
O     0.3227377    0.0000000    0.0000000 
O    -0.3227377    0.0000000    0.0000000 
H    -4.2803014    0.9715291    2.9560087 
O     3.7584531    2.9062680   -2.3265730 
H     3.3537475    2.9062680   -2.0114432 
H     4.1631587    2.9062680   -2.0114432 
O     4.0965515    1.5774774    2.9588731 
H     3.6918459    1.5774774    3.2740029 
H     4.5012571    1.5774774    3.2740029 
O     3.1734954    0.3139158   -4.2191753 
H     2.7687898    0.3139158   -3.9040455 
H     3.5782010    0.3139158   -3.9040455 
O    -1.9307355   -4.7303397    1.3818004 
H    -2.3354411   -4.7303397    1.6969302 
H    -1.5260299   -4.7303397    1.6969302 
