15
Energy = -448.6914987938
O     0.3227377    0.0000000    0.0000000 
O    -0.3227377    0.0000000    0.0000000 
H     3.8043727   -3.6563246    0.4010921 
O     4.1586206   -2.5778606    2.0195387 
H     3.7539149   -2.5778606    2.3346684 
H     4.5633262   -2.5778606    2.3346684 
O    -4.9720052    1.7176655    0.5796343 
H    -5.3767108    1.7176655    0.8947640 
H    -4.5672995    1.7176655    0.8947640 
O    -1.4781712    5.0799597   -0.1051172 
H    -1.8828768    5.0799597    0.2100126 
H    -1.0734655    5.0799597    0.2100126 
O    -2.9170477   -2.7657494   -3.4377903 
H    -3.3217533   -2.7657494   -3.1226606 
H    -2.5123421   -2.7657494   -3.1226606 
