15
Energy = -448.7024066439
O     0.3227377    0.0000000    0.0000000 
O    -0.3227377    0.0000000    0.0000000 
H    -3.5085870    2.0950769   -3.3620390 
O    -3.9272552   -0.7282716    3.4749492 
H    -4.3319608   -0.7282716    3.7900790 
H    -3.5225495   -0.7282716    3.7900790 
O     2.8561452   -2.4298875    3.7375182 
H     2.4514396   -2.4298875    4.0526480 
H     3.2608508   -2.4298875    4.0526480 
O    -3.3155977    0.4355720   -4.0974457 
H    -3.7203034    0.4355720   -3.7823159 
H    -2.9108921    0.4355720   -3.7823159 
O     1.7256275    4.5573474    2.0666823 
H     1.3209219    4.5573474    2.3818121 
H     2.1303331    4.5573474    2.3818121 
