15
Energy = -448.6908525745
O     0.3227377    0.0000000    0.0000000 
O    -0.3227377    0.0000000    0.0000000 
H     1.0850404    0.9318973    3.4169642 
O     0.3544798    3.1990844   -1.8297001 
H    -0.0502258    3.1990844   -1.5145704 
H     0.7591854    3.1990844   -1.5145704 
O    -2.7696889    2.2408834   -1.0104618 
H    -3.1743945    2.2408834   -0.6953321 
H    -2.3649832    2.2408834   -0.6953321 
O     1.6114455    2.3545959    2.3660751 
H     1.2067398    2.3545959    2.6812048 
H     2.0161511    2.3545959    2.6812048 
O     2.2744270    2.9065226    0.3207778 
H     1.8697214    2.9065226    0.6359076 
H     2.6791327    2.9065226    0.6359076 
