15
Energy = -448.6941921108
O     0.3227377    0.0000000    0.0000000 
O    -0.3227377    0.0000000    0.0000000 
H    -1.1503455   -0.9209402   -3.3985238 
O    -3.1733938   -1.9095634   -0.0635318 
H    -3.5780994   -1.9095634    0.2515980 
H    -2.7686882   -1.9095634    0.2515980 
O     1.5970017   -2.6236149    2.0744214 
H     1.1922960   -2.6236149    2.3895511 
H     2.0017073   -2.6236149    2.3895511 
O     2.5058634    1.4354503   -2.3160460 
H     2.1011578    1.4354503   -2.0009163 
H     2.9105690    1.4354503   -2.0009163 
O    -0.0986287   -2.7659009   -2.4582377 
H    -0.5033343   -2.7659009   -2.1431079 
H     0.3060769   -2.7659009   -2.1431079 
