15
Energy = -448.6910977020
O     0.3227377    0.0000000    0.0000000 
O    -0.3227377    0.0000000    0.0000000 
H     0.4111612   -2.9295617   -4.3876475 
O    -1.9985310    2.0308420    4.4629562 
H    -2.4032366    2.0308420    4.7780859 
H    -1.5938254    2.0308420    4.7780859 
O     2.1718667    0.2703160   -4.8141978 
H     1.7671611    0.2703160   -4.4990681 
H     2.5765723    0.2703160   -4.4990681 
O    -2.5885986   -0.1013237   -4.6105314 
H    -2.9933043   -0.1013237   -4.2954017 
H    -2.1838930   -0.1013237   -4.2954017 
O     2.2675391   -1.1970332    4.6328264 
H     1.8628335   -1.1970332    4.9479561 
H     2.6722447   -1.1970332    4.9479561 
