15
Energy = -448.6907120693
O     0.3227377    0.0000000    0.0000000 
O    -0.3227377    0.0000000    0.0000000 
H     1.5432433   -0.5052971   -5.0364582 
O     2.5335091    2.4707532   -3.9306410 
H     2.1288035    2.4707532   -3.6155112 
H     2.9382147    2.4707532   -3.6155112 
O     3.0012462   -3.0355792   -3.1236332 
H     2.5965406   -3.0355792   -2.8085034 
H     3.4059518   -3.0355792   -2.8085034 
O    -3.5523389   -3.2652327    2.1767761 
H    -3.9570445   -3.2652327    2.4919059 
H    -3.1476333   -3.2652327    2.4919059 
O    -2.7791986    2.2981588    3.8764067 
H    -3.1839042    2.2981588    4.1915364 
H    -2.3744930    2.2981588    4.1915364 
