15
Energy = -448.7115617267
O     0.3227377    0.0000000    0.0000000 
O    -0.3227377    0.0000000    0.0000000 
H     2.1710685    2.6968722    1.3170922 
O     1.7222330   -0.2741491    3.2718137 
H     1.3175273   -0.2741491    3.5869434 
H     2.1269386   -0.2741491    3.5869434 
O     2.1508251   -2.2932903    1.9623765 
H     1.7461195   -2.2932903    2.2775062 
H     2.5555307   -2.2932903    2.2775062 
O    -3.1010443   -1.6086617   -1.2279503 
H    -3.5057500   -1.6086617   -0.9128205 
H    -2.6963387   -1.6086617   -0.9128205 
O     1.7822431    2.8204764   -1.6055559 
H     1.3775375    2.8204764   -1.2904261 
H     2.1869487    2.8204764   -1.2904261 
