15
Energy = -448.6830940937
O     0.3227377    0.0000000    0.0000000 
O    -0.3227377    0.0000000    0.0000000 
H     1.5631832    4.4206699    2.4529517 
O    -3.7298984   -3.4105683   -1.5642655 
H    -4.1346040   -3.4105683   -1.2491357 
H    -3.3251927   -3.4105683   -1.2491357 
O     3.6741921    3.2251396   -2.0214820 
H     3.2694865    3.2251396   -1.7063522 
H     4.0788977    3.2251396   -1.7063522 
O    -2.1869492    3.7748109   -2.9913802 
H    -2.5916548    3.7748109   -2.6762504 
H    -1.7822436    3.7748109   -2.6762504 
O     2.9043874    4.4228913   -0.0697403 
H     2.4996818    4.4228913    0.2453894 
H     3.3090930    4.4228913    0.2453894 
