15
Energy = -448.6901799129
O     0.3227377    0.0000000    0.0000000 
O    -0.3227377    0.0000000    0.0000000 
H     3.6589444    0.4937122    0.2996065 
O     0.1705972    1.8942657   -3.1749214 
H    -0.2341084    1.8942657   -2.8597917 
H     0.5753029    1.8942657   -2.8597917 
O     2.6965134   -2.2914691   -1.0913953 
H     2.2918077   -2.2914691   -0.7762655 
H     3.1012190   -2.2914691   -0.7762655 
O    -2.6728677   -1.1473378   -2.2898754 
H    -3.0775733   -1.1473378   -1.9747456 
H    -2.2681621   -1.1473378   -1.9747456 
O    -1.1350403    2.1686530    2.7840553 
H    -1.5397459    2.1686530    3.0991851 
H    -0.7303346    2.1686530    3.0991851 
