15
Energy = -448.6956321711
O     0.3227377    0.0000000    0.0000000 
O    -0.3227377    0.0000000    0.0000000 
H     1.1051924   -4.1613609    3.0764364 
O     2.9681755    3.3024642    2.8823927 
H     2.5634699    3.3024642    3.1975225 
H     3.3728811    3.3024642    3.1975225 
O     2.2150383    4.6426484   -1.2381120 
H     1.8103327    4.6426484   -0.9229822 
H     2.6197440    4.6426484   -0.9229822 
O     5.2799142    0.3192138    0.1568800 
H     4.8752086    0.3192138    0.4720097 
H     5.6846199    0.3192138    0.4720097 
O     2.3063266   -4.5560394   -1.3841113 
H     1.9016210   -4.5560394   -1.0689815 
H     2.7110322   -4.5560394   -1.0689815 
