15
Energy = -448.7071738235
O     0.3227377    0.0000000    0.0000000 
O    -0.3227377    0.0000000    0.0000000 
H     2.9723540    2.6983680    3.4477178 
O    -3.3080447    4.1251468    0.2107444 
H    -3.7127503    4.1251468    0.5258741 
H    -2.9033390    4.1251468    0.5258741 
O     1.0783340   -0.4191895    5.1675143 
H     0.6736283   -0.4191895    5.4826440 
H     1.4830396   -0.4191895    5.4826440 
O    -2.2853587   -1.9369222    4.3659089 
H    -2.6900643   -1.9369222    4.6810387 
H    -1.8806531   -1.9369222    4.6810387 
O     4.1091365    3.1440100    1.1141853 
H     3.7044309    3.1440100    1.4293151 
H     4.5138421    3.1440100    1.4293151 
