15
Energy = -448.4234331684
O     0.3227377    0.0000000    0.0000000 
O    -0.3227377    0.0000000    0.0000000 
H    -1.3947675   -3.4828413   -3.7319266 
O    -3.3790465    3.3465026   -2.3169685 
H    -3.7837521    3.3465026   -2.0018388 
H    -2.9743408    3.3465026   -2.0018388 
O    -3.6940813    3.6858015   -0.8745674 
H    -4.0987870    3.6858015   -0.5594376 
H    -3.2893757    3.6858015   -0.5594376 
O     1.3625710   -3.8562744    3.3616484 
H     0.9578654   -3.8562744    3.6767781 
H     1.7672767   -3.8562744    3.6767781 
O    -2.7432110   -4.3924367    1.0919415 
H    -3.1479166   -4.3924367    1.4070713 
H    -2.3385053   -4.3924367    1.4070713 
