15
Energy = -448.6816723623
O     0.3227377    0.0000000    0.0000000 
O    -0.3227377    0.0000000    0.0000000 
H     2.3669757    4.4198637    1.6926509 
O    -3.2757555   -1.5930773   -3.8347726 
H    -3.6804612   -1.5930773   -3.5196428 
H    -2.8710499   -1.5930773   -3.5196428 
O     3.3284919   -2.3926677    3.3502730 
H     2.9237863   -2.3926677    3.6654028 
H     3.7331975   -2.3926677    3.6654028 
O    -3.6342904   -3.1905781   -2.1444862 
H    -4.0389960   -3.1905781   -1.8293564 
H    -3.2295848   -3.1905781   -1.8293564 
O     4.1323923    3.2867861   -0.3472434 
H     3.7276867    3.2867861   -0.0321137 
H     4.5370980    3.2867861   -0.0321137 
