15
Energy = -448.4659392791
O     0.3227377    0.0000000    0.0000000 
O    -0.3227377    0.0000000    0.0000000 
H    -1.7605034   -2.8713925    4.0814910 
O     0.3800379   -4.6493472   -2.4946306 
H    -0.0246677   -4.6493472   -2.1795008 
H     0.7847435   -4.6493472   -2.1795008 
O     2.3668491    2.6014156    3.9576864 
H     1.9621434    2.6014156    4.2728161 
H     2.7715547    2.6014156    4.2728161 
O    -5.0940871    1.4202098   -0.1862810 
H    -5.4987927    1.4202098    0.1288488 
H    -4.6893815    1.4202098    0.1288488 
O     1.2430896    3.6539779    3.6239868 
H     0.8383839    3.6539779    3.9391166 
H     1.6477952    3.6539779    3.9391166 
