15
Energy = -448.7220924784
O     0.3227377    0.0000000    0.0000000 
O    -0.3227377    0.0000000    0.0000000 
H     2.2062422    2.6152683    1.4192451 
O    -1.3307229    3.0328754    1.6627500 
H    -1.7354286    3.0328754    1.9778798 
H    -0.9260173    3.0328754    1.9778798 
O     2.7554254   -1.1645113   -2.1809400 
H     2.3507198   -1.1645113   -1.8658103 
H     3.1601311   -1.1645113   -1.8658103 
O     2.2725069    2.5987143   -1.3392865 
H     1.8678013    2.5987143   -1.0241567 
H     2.6772125    2.5987143   -1.0241567 
O     0.2411107   -2.4767295    2.7476788 
H    -0.1635949   -2.4767295    3.0628086 
H     0.6458163   -2.4767295    3.0628086 
