15
Energy = -448.3811087326
O     0.3227377    0.0000000    0.0000000 
O    -0.3227377    0.0000000    0.0000000 
H     1.6834915   -3.4631635    3.6297646 
O     3.3374814    1.6839572    3.7492073 
H     2.9327758    1.6839572    4.0643371 
H     3.7421870    1.6839572    4.0643371 
O     4.2950686    1.7076267    2.5804354 
H     3.8903630    1.7076267    2.8955651 
H     4.6997742    1.7076267    2.8955651 
O    -0.4905997   -5.2679125    0.1098109 
H    -0.8953053   -5.2679125    0.4249406 
H    -0.0858941   -5.2679125    0.4249406 
O    -2.7242333    4.5075424   -0.5095100 
H    -3.1289390    4.5075424   -0.1943802 
H    -2.3195277    4.5075424   -0.1943802 
