15
Energy = -448.6911752497
O     0.3227377    0.0000000    0.0000000 
O    -0.3227377    0.0000000    0.0000000 
H     1.0756218   -1.4416095   -4.9767093 
O     4.1357287   -2.2181348   -2.4413250 
H     3.7310231   -2.2181348   -2.1261952 
H     4.5404343   -2.2181348   -2.1261952 
O     1.4045967    5.1019199    0.0226831 
H     0.9998911    5.1019199    0.3378129 
H     1.8093023    5.1019199    0.3378129 
O     3.6436002    2.4116311    2.9889025 
H     3.2388946    2.4116311    3.3040322 
H     4.0483058    2.4116311    3.3040322 
O    -4.0438584    2.7720823   -1.9876183 
H    -4.4485640    2.7720823   -1.6724885 
H    -3.6391528    2.7720823   -1.6724885 
