15
Energy = -448.7062905990
O     0.3227377    0.0000000    0.0000000 
O    -0.3227377    0.0000000    0.0000000 
H     0.7161678   -3.5994924    0.5021431 
O     3.2699199    0.2159791    1.7307174 
H     2.8652143    0.2159791    2.0458472 
H     3.6746255    0.2159791    2.0458472 
O     3.1950682   -0.8464012   -1.6685195 
H     2.7903626   -0.8464012   -1.3533897 
H     3.5997739   -0.8464012   -1.3533897 
O     2.5298396   -2.3691416    1.3108487 
H     2.1251340   -2.3691416    1.6259784 
H     2.9345452   -2.3691416    1.6259784 
O    -1.4770103   -2.4480859    2.3589090 
H    -1.8817159   -2.4480859    2.6740388 
H    -1.0723047   -2.4480859    2.6740388 
