15
Energy = -448.6920619918
O     0.3227377    0.0000000    0.0000000 
O    -0.3227377    0.0000000    0.0000000 
H    -3.8839674    1.8705530    3.0689843 
O     0.0531315    0.0407107   -5.2875828 
H    -0.3515741    0.0407107   -4.9724530 
H     0.4578372    0.0407107   -4.9724530 
O    -3.7408389   -2.7069003    2.5886535 
H    -4.1455445   -2.7069003    2.9037833 
H    -3.3361332   -2.7069003    2.9037833 
O     2.3779041    4.5995000   -1.0884844 
H     1.9731985    4.5995000   -0.7733547 
H     2.7826097    4.5995000   -0.7733547 
O    -0.1301443   -3.5708227    3.9069841 
H    -0.5348499   -3.5708227    4.2221138 
H     0.2745614   -3.5708227    4.2221138 
