15
Energy = -448.6408594283
O     0.3227377    0.0000000    0.0000000 
O    -0.3227377    0.0000000    0.0000000 
H     3.6561830    3.4032412    1.7473154 
O     4.0192937    3.4276495    0.3189354 
H     3.6145881    3.4276495    0.6340651 
H     4.4239993    3.4276495    0.6340651 
O    -3.1384891    1.7056340   -3.9005325 
H    -3.5431947    1.7056340   -3.5854028 
H    -2.7337835    1.7056340   -3.5854028 
O    -0.2877159    4.4299816   -2.8763951 
H    -0.6924216    4.4299816   -2.5612653 
H     0.1169897    4.4299816   -2.5612653 
O    -3.9385496    3.5341144   -0.0226678 
H    -4.3432552    3.5341144    0.2924619 
H    -3.5338440    3.5341144    0.2924619 
