15
Energy = -448.2276068075
O     0.3227377    0.0000000    0.0000000 
O    -0.3227377    0.0000000    0.0000000 
H    -2.1303842    1.3596222   -4.6492716 
O    -2.8867070    0.2712291   -4.4229943 
H    -3.2914126    0.2712291   -4.1078646 
H    -2.4820014    0.2712291   -4.1078646 
O    -3.0634796   -1.0312702   -4.1860339 
H    -3.4681852   -1.0312702   -3.8709042 
H    -2.6587740   -1.0312702   -3.8709042 
O    -2.1085069   -4.7240956   -1.1097685 
H    -2.5132125   -4.7240956   -0.7946387 
H    -1.7038013   -4.7240956   -0.7946387 
O     1.4773651    3.2891452   -3.8694451 
H     1.0726595    3.2891452   -3.5543154 
H     1.8820707    3.2891452   -3.5543154 
