15
Energy = -448.7303672944
O     0.3227377    0.0000000    0.0000000 
O    -0.3227377    0.0000000    0.0000000 
H    -2.9318286    2.2042961    0.5165746 
O     2.7642537   -1.4735384    1.9808774 
H     2.3595481   -1.4735384    2.2960072 
H     3.1689593   -1.4735384    2.2960072 
O    -2.7353437   -2.0405190    1.4444471 
H    -3.1400494   -2.0405190    1.7595768 
H    -2.3306381   -2.0405190    1.7595768 
O    -1.7336992    2.1525096   -2.4624836 
H    -2.1384048    2.1525096   -2.1473538 
H    -1.3289935    2.1525096   -2.1473538 
O     0.4369701    0.8000477    3.5940807 
H     0.0322645    0.8000477    3.9092104 
H     0.8416757    0.8000477    3.9092104 
