15
Energy = -448.6896808674
O     0.3227377    0.0000000    0.0000000 
O    -0.3227377    0.0000000    0.0000000 
H     0.3570552    3.6197105    3.8435717 
O     2.9248460    1.0419320   -4.2813831 
H     2.5201404    1.0419320   -3.9662533 
H     3.3295517    1.0419320   -3.9662533 
O     0.2048226    5.0541543   -1.5507155 
H    -0.1998830    5.0541543   -1.2355857 
H     0.6095282    5.0541543   -1.2355857 
O    -3.4447008   -3.9972646    0.4021960 
H    -3.8494065   -3.9972646    0.7173258 
H    -3.0399952   -3.9972646    0.7173258 
O     3.2354061    4.0564453    1.0431080 
H     2.8307005    4.0564453    1.3582378 
H     3.6401117    4.0564453    1.3582378 
