15
Energy = -448.6898177407
O     0.3227377    0.0000000    0.0000000 
O    -0.3227377    0.0000000    0.0000000 
H     1.3756162    4.1871032   -2.9289388 
O     0.4312919   -3.3759687   -4.0483533 
H     0.0265863   -3.3759687   -3.7332236 
H     0.8359976   -3.3759687   -3.7332236 
O    -5.0194129   -0.9929250    1.3537385 
H    -5.4241186   -0.9929250    1.6688682 
H    -4.6147073   -0.9929250    1.6688682 
O     4.6191380    0.7741600   -2.4593792 
H     4.2144324    0.7741600   -2.1442494 
H     5.0238436    0.7741600   -2.1442494 
O    -3.6579618    1.4030777    3.5609437 
H    -4.0626674    1.4030777    3.8760735 
H    -3.2532562    1.4030777    3.8760735 
