15
Energy = -448.6816891800
O     0.3227377    0.0000000    0.0000000 
O    -0.3227377    0.0000000    0.0000000 
H    -1.7283079    3.4659965   -3.6059196 
O     3.8664582    3.3573553   -1.3309649 
H     3.4617526    3.3573553   -1.0158352 
H     4.2711638    3.3573553   -1.0158352 
O     0.4126664    1.1640689   -5.1418634 
H     0.0079607    1.1640689   -4.8267337 
H     0.8173720    1.1640689   -4.8267337 
O    -0.6575533    5.2507577    0.0054829 
H    -1.0622589    5.2507577    0.3206126 
H    -0.2528477    5.2507577    0.3206126 
O    -2.9205271    4.2081874   -1.3245864 
H    -3.3252327    4.2081874   -1.0094566 
H    -2.5158215    4.2081874   -1.0094566 
