15
Energy = -448.4418161474
O     0.3227377    0.0000000    0.0000000 
O    -0.3227377    0.0000000    0.0000000 
H    -3.3681933    3.4773309   -2.1368856 
O    -3.8258385    2.8698889   -2.2610829 
H    -4.2305441    2.8698889   -1.9459532 
H    -3.4211329    2.8698889   -1.9459532 
O    -3.8995006   -3.2627642    1.4704275 
H    -4.3042063   -3.2627642    1.7855573 
H    -3.4947950   -3.2627642    1.7855573 
O     3.6590913   -1.2570953   -3.6064430 
H     3.2543857   -1.2570953   -3.2913133 
H     4.0637969   -1.2570953   -3.2913133 
O    -3.3367498   -2.5405708   -3.2233761 
H    -3.7414555   -2.5405708   -2.9082464 
H    -2.9320442   -2.5405708   -2.9082464 
