15
Energy = -448.6802580031
O     0.3227377    0.0000000    0.0000000 
O    -0.3227377    0.0000000    0.0000000 
H    -2.1760739    4.7074602    1.0523103 
O    -3.2524581    3.9801711   -1.2542460 
H    -3.6571638    3.9801711   -0.9391162 
H    -2.8477525    3.9801711   -0.9391162 
O     0.5212788   -4.2602390   -3.0916302 
H     0.1165731   -4.2602390   -2.7765005 
H     0.9259844   -4.2602390   -2.7765005 
O    -0.6047839    1.2806211   -5.0949689 
H    -1.0094896    1.2806211   -4.7798392 
H    -0.2000783    1.2806211   -4.7798392 
O     0.3652505    4.8655238   -2.0446755 
H    -0.0394551    4.8655238   -1.7295458 
H     0.7699561    4.8655238   -1.7295458 
