15
Energy = -448.6846880643
O     0.3227377    0.0000000    0.0000000 
O    -0.3227377    0.0000000    0.0000000 
H     0.4643706   -2.8846843    2.2769160 
O     2.6234089   -2.6148723    0.0432412 
H     2.2187033   -2.6148723    0.3583709 
H     3.0281145   -2.6148723    0.3583709 
O     1.9466408   -2.2705695   -2.1817545 
H     1.5419352   -2.2705695   -1.8666247 
H     2.3513465   -2.2705695   -1.8666247 
O    -3.3440332   -1.2269667   -1.0127906 
H    -3.7487389   -1.2269667   -0.6976608 
H    -2.9393276   -1.2269667   -0.6976608 
O     0.6678710    2.8487668   -2.2677693 
H     0.2631653    2.8487668   -1.9526395 
H     1.0725766    2.8487668   -1.9526395 
