15
Energy = -448.6996976108
O     0.3227377    0.0000000    0.0000000 
O    -0.3227377    0.0000000    0.0000000 
H     2.4510474   -2.0954087   -4.1957676 
O     0.9271611    0.8648366    5.1413968 
H     0.5224555    0.8648366    5.4565265 
H     1.3318668    0.8648366    5.4565265 
O    -3.5277136   -2.8221740   -2.7518492 
H    -3.9324192   -2.8221740   -2.4367194 
H    -3.1230080   -2.8221740   -2.4367194 
O    -3.2541934    3.2364761    2.6378267 
H    -3.6588990    3.2364761    2.9529565 
H    -2.8494878    3.2364761    2.9529565 
O     4.6347375   -2.5330049    0.3292342 
H     4.2300319   -2.5330049    0.6443640 
H     5.0394431   -2.5330049    0.6443640 
