15
Energy = -448.6671571103
O     0.3227377    0.0000000    0.0000000 
O    -0.3227377    0.0000000    0.0000000 
H    -0.9856771    2.4762195   -2.5725799 
O     0.4165369   -3.1911888   -1.8304113 
H     0.0118313   -3.1911888   -1.5152816 
H     0.8212425   -3.1911888   -1.5152816 
O    -1.9769656   -2.9523540   -1.0434235 
H    -2.3816712   -2.9523540   -0.7282937 
H    -1.5722600   -2.9523540   -0.7282937 
O    -2.6117115    0.9092443   -2.4607086 
H    -3.0164172    0.9092443   -2.1455788 
H    -2.2070059    0.9092443   -2.1455788 
O     2.3996290   -1.1402112   -2.5775315 
H     1.9949234   -1.1402112   -2.2624018 
H     2.8043346   -1.1402112   -2.2624018 
