15
Energy = -448.7174986361
O     0.3227377    0.0000000    0.0000000 
O    -0.3227377    0.0000000    0.0000000 
H    -1.9974397   -1.6181922    2.6670355 
O    -1.9104122   -3.0231914    0.9691806 
H    -2.3151178   -3.0231914    1.2843103 
H    -1.5057066   -3.0231914    1.2843103 
O    -2.9568779    2.1613629   -0.5501067 
H    -3.3615835    2.1613629   -0.2349769 
H    -2.5521722    2.1613629   -0.2349769 
O     3.3707021   -1.3047756   -0.8069870 
H     2.9659964   -1.3047756   -0.4918573 
H     3.7754077   -1.3047756   -0.4918573 
O    -0.9825593    3.0842112    1.8047664 
H    -1.3872649    3.0842112    2.1198962 
H    -0.5778537    3.0842112    2.1198962 
