15
Energy = -448.6216137510
O     0.3227377    0.0000000    0.0000000 
O    -0.3227377    0.0000000    0.0000000 
H     0.9383240   -2.9011883   -4.3249845 
O     3.7104921   -3.1704913    2.0490199 
H     3.3057864   -3.1704913    2.3641497 
H     4.1151977   -3.1704913    2.3641497 
O     3.1690209    3.6152954    2.2150496 
H     2.7643153    3.6152954    2.5301793 
H     3.5737265    3.6152954    2.5301793 
O     3.4895023   -2.0029091    3.4409966 
H     3.0847967   -2.0029091    3.7561264 
H     3.8942079   -2.0029091    3.7561264 
O     2.1261825   -0.5913179    4.8133930 
H     1.7214769   -0.5913179    5.1285228 
H     2.5308882   -0.5913179    5.1285228 
