15
Energy = -448.7035624686
O     0.3227377    0.0000000    0.0000000 
O    -0.3227377    0.0000000    0.0000000 
H     1.6643276    0.0711816    3.3085248 
O     0.0498702    1.5555846    3.3651718 
H    -0.3548354    1.5555846    3.6803016 
H     0.4545759    1.5555846    3.6803016 
O     2.5356180    2.7001538   -0.0308862 
H     2.1309124    2.7001538    0.2842435 
H     2.9403236    2.7001538    0.2842435 
O     2.2283793   -1.1077258   -2.7400757 
H     1.8236737   -1.1077258   -2.4249459 
H     2.6330850   -1.1077258   -2.4249459 
O    -3.0080518   -1.7345212   -1.2863712 
H    -3.4127574   -1.7345212   -0.9712415 
H    -2.6033462   -1.7345212   -0.9712415 
