15
Energy = -448.6838641886
O     0.3227377    0.0000000    0.0000000 
O    -0.3227377    0.0000000    0.0000000 
H    -0.8316834    2.9158150   -2.1278429 
O     1.8504903   -2.4349240   -2.0862644 
H     1.4457846   -2.4349240   -1.7711347 
H     2.2551959   -2.4349240   -1.7711347 
O     2.2133630    2.2952668   -1.8814846 
H     1.8086573    2.2952668   -1.5663549 
H     2.6180686    2.2952668   -1.5663549 
O    -0.5132451    3.5997070    0.7109271 
H    -0.9179507    3.5997070    1.0260568 
H    -0.1085395    3.5997070    1.0260568 
O    -2.2181732    0.8466255   -2.8395299 
H    -2.6228788    0.8466255   -2.5244001 
H    -1.8134676    0.8466255   -2.5244001 
