15
Energy = -448.7000356946
O     0.3227377    0.0000000    0.0000000 
O    -0.3227377    0.0000000    0.0000000 
H    -1.0044409   -2.1834699   -4.7144876 
O    -2.6834487   -3.0201425    3.4214652 
H    -3.0881543   -3.0201425    3.7365949 
H    -2.2787431   -3.0201425    3.7365949 
O    -3.1195772   -4.2317922    0.6062667 
H    -3.5242828   -4.2317922    0.9213965 
H    -2.7148716   -4.2317922    0.9213965 
O    -4.7651179   -0.4565252   -2.2519111 
H    -5.1698235   -0.4565252   -1.9367814 
H    -4.3604123   -0.4565252   -1.9367814 
O     0.7704087   -4.7325484    2.2425793 
H     0.3657031   -4.7325484    2.5577090 
H     1.1751143   -4.7325484    2.5577090 
