15
Energy = -448.7364574524
O     0.3227377    0.0000000    0.0000000 
O    -0.3227377    0.0000000    0.0000000 
H     2.1595070   -2.1386007    2.1176181 
O    -1.6780801    3.2550087    0.5608596 
H    -2.0827857    3.2550087    0.8759894 
H    -1.2733744    3.2550087    0.8759894 
O     3.5628408   -0.5326002    0.8662562 
H     3.1581352   -0.5326002    1.1813860 
H     3.9675464   -0.5326002    1.1813860 
O    -1.6320820   -1.6729726    2.8775878 
H    -2.0367876   -1.6729726    3.1927176 
H    -1.2273764   -1.6729726    3.1927176 
O     0.6383438   -0.1823424    3.6480282 
H     0.2336382   -0.1823424    3.9631579 
H     1.0430494   -0.1823424    3.9631579 
