15
Energy = -448.6903999504
O     0.3227377    0.0000000    0.0000000 
O    -0.3227377    0.0000000    0.0000000 
H    -2.0331310   -0.9927654   -4.7836839 
O    -3.2424498    4.1542716    0.4847873 
H    -3.6471554    4.1542716    0.7999171 
H    -2.8377442    4.1542716    0.7999171 
O    -2.7148934    2.9403229    3.4659446 
H    -3.1195990    2.9403229    3.7810744 
H    -2.3101877    2.9403229    3.7810744 
O     4.1657010   -1.6608705   -2.8053779 
H     3.7609953   -1.6608705   -2.4902481 
H     4.5704066   -1.6608705   -2.4902481 
O     1.6315664   -2.7530264   -4.2106955 
H     1.2268608   -2.7530264   -3.8955657 
H     2.0362720   -2.7530264   -3.8955657 
