15
Energy = -448.6874216159
O     0.3227377    0.0000000    0.0000000 
O    -0.3227377    0.0000000    0.0000000 
H    -2.9817723    4.0365744    1.6786713 
O    -4.4791147   -1.5407312    2.3631109 
H    -4.8838203   -1.5407312    2.6782406 
H    -4.0744090   -1.5407312    2.6782406 
O     5.0681119   -0.6868330   -1.3546678 
H     4.6634063   -0.6868330   -1.0395381 
H     5.4728175   -0.6868330   -1.0395381 
O    -5.0329261    0.6894474   -1.4785152 
H    -5.4376318    0.6894474   -1.1633854 
H    -4.6282205    0.6894474   -1.1633854 
O    -3.4745355    2.6250212   -3.0028454 
H    -3.8792411    2.6250212   -2.6877156 
H    -3.0698299    2.6250212   -2.6877156 
