15
Energy = -448.5365046300
O     0.3227377    0.0000000    0.0000000 
O    -0.3227377    0.0000000    0.0000000 
H     4.5914779    0.3622786    2.6057477 
O     2.6739206    3.4138943   -3.0291072 
H     2.2692150    3.4138943   -2.7139774 
H     3.0786262    3.4138943   -2.7139774 
O     4.2696029    3.1245534   -0.0986727 
H     3.8648973    3.1245534    0.2164571 
H     4.6743085    3.1245534    0.2164571 
O     4.0243544   -2.7522871    2.0610255 
H     3.6196488   -2.7522871    2.3761553 
H     4.4290601   -2.7522871    2.3761553 
O     3.1770210    4.1396695   -0.8751612 
H     2.7723153    4.1396695   -0.5600315 
H     3.5817266    4.1396695   -0.5600315 
