15
Energy = -448.6955819960
O     0.3227377    0.0000000    0.0000000 
O    -0.3227377    0.0000000    0.0000000 
H     2.3856711   -3.7967274    2.8100303 
O     2.6463222   -4.4647668   -1.0285494 
H     2.2416166   -4.4647668   -0.7134196 
H     3.0510278   -4.4647668   -0.7134196 
O     4.3245597   -0.4414961   -3.0138672 
H     3.9198541   -0.4414961   -2.6987375 
H     4.7292653   -0.4414961   -2.6987375 
O    -3.3976625    4.0548542    0.1336989 
H    -3.8023681    4.0548542    0.4488287 
H    -2.9929569    4.0548542    0.4488287 
O    -2.0405188   -0.3708413    4.8721930 
H    -2.4452244   -0.3708413    5.1873227 
H    -1.6358131   -0.3708413    5.1873227 
