15
Energy = -448.6876856225
O     0.3227377    0.0000000    0.0000000 
O    -0.3227377    0.0000000    0.0000000 
H    -0.5912940    5.2277722    0.5688635 
O     0.9064605   -4.9522279   -1.6261449 
H     0.5017549   -4.9522279   -1.3110152 
H     1.3111662   -4.9522279   -1.3110152 
O    -3.2341868   -2.2342610    3.5464965 
H    -3.6388924   -2.2342610    3.8616262 
H    -2.8294811   -2.2342610    3.8616262 
O     3.3559593   -3.5378538   -2.0514640 
H     2.9512537   -3.5378538   -1.7363343 
H     3.7606649   -3.5378538   -1.7363343 
O     0.1572056    4.3256574   -3.0403791 
H    -0.2475000    4.3256574   -2.7252494 
H     0.5619112    4.3256574   -2.7252494 
