15
Energy = -448.6872520328
O     0.3227377    0.0000000    0.0000000 
O    -0.3227377    0.0000000    0.0000000 
H    -4.1479191   -0.3314584    3.2692106 
O    -2.6844181   -1.1748088   -4.4026581 
H    -3.0891237   -1.1748088   -4.0875283 
H    -2.2797125   -1.1748088   -4.0875283 
O     4.5964286   -1.2976344    2.2823222 
H     4.1917230   -1.2976344    2.5974519 
H     5.0011342   -1.2976344    2.5974519 
O    -4.8019701    0.4866120   -2.1658271 
H    -5.2066758    0.4866120   -1.8506974 
H    -4.3972645    0.4866120   -1.8506974 
O    -0.0160191   -5.1880125   -1.0388790 
H    -0.4207248   -5.1880125   -0.7237492 
H     0.3886865   -5.1880125   -0.7237492 
