15
Energy = -448.4119048495
O     0.3227377    0.0000000    0.0000000 
O    -0.3227377    0.0000000    0.0000000 
H    -3.2845828    2.9494832    2.9180302 
O    -5.2665300   -0.1407362    0.5004445 
H    -5.6712356   -0.1407362    0.8155743 
H    -4.8618244   -0.1407362    0.8155743 
O     4.2037425    2.4848912   -2.0350345 
H     3.7990368    2.4848912   -1.7199047 
H     4.6084481    2.4848912   -1.7199047 
O     2.9384054   -4.1763558   -1.3842782 
H     2.5336998   -4.1763558   -1.0691484 
H     3.3431110   -4.1763558   -1.0691484 
O    -4.9453641   -1.3670728    1.2988790 
H    -5.3500698   -1.3670728    1.6140087 
H    -4.5406585   -1.3670728    1.6140087 
