15
Energy = -448.6249124753
O     0.3227377    0.0000000    0.0000000 
O    -0.3227377    0.0000000    0.0000000 
H     2.8563985    2.7163550   -3.5306145 
O    -0.9246427   -5.1564885   -0.7435632 
H    -1.3293483   -5.1564885   -0.4284334 
H    -0.5199370   -5.1564885   -0.4284334 
O    -2.6589906   -0.7329651    4.5198875 
H    -3.0636962   -0.7329651    4.8350173 
H    -2.2542849   -0.7329651    4.8350173 
O    -2.6083607    3.8542816   -2.5149264 
H    -3.0130664    3.8542816   -2.1997966 
H    -2.2036551    3.8542816   -2.1997966 
O    -0.5095880   -4.6584489   -2.4542855 
H    -0.9142937   -4.6584489   -2.1391557 
H    -0.1048824   -4.6584489   -2.1391557 
