15
Energy = -448.6262435222
O     0.3227377    0.0000000    0.0000000 
O    -0.3227377    0.0000000    0.0000000 
H    -3.3304422   -1.9613713    3.6144175 
O     4.0359944    3.1596077   -1.3117067 
H     3.6312888    3.1596077   -0.9965769 
H     4.4407001    3.1596077   -0.9965769 
O     2.8495587    3.0017404    3.3010976 
H     2.4448531    3.0017404    3.6162274 
H     3.2542644    3.0017404    3.6162274 
O    -1.7362914   -4.3553186   -2.4496675 
H    -2.1409971   -4.3553186   -2.1345377 
H    -1.3315858   -4.3553186   -2.1345377 
O    -3.0097667   -2.9139991    3.2368357 
H    -3.4144723   -2.9139991    3.5519655 
H    -2.6050610   -2.9139991    3.5519655 
