15
Energy = -448.7168847831
O     0.3227377    0.0000000    0.0000000 
O    -0.3227377    0.0000000    0.0000000 
H     2.6584019   -2.5787738    0.0649226 
O     2.6070568   -1.1378881    2.3764960 
H     2.2023512   -1.1378881    2.6916258 
H     3.0117624   -1.1378881    2.6916258 
O    -2.5251671    2.2126742    1.5686905 
H    -2.9298727    2.2126742    1.8838203 
H    -2.1204615    2.2126742    1.8838203 
O     3.4849594    1.2523201    0.0939962 
H     3.0802538    1.2523201    0.4091260 
H     3.8896651    1.2523201    0.4091260 
O    -1.8448754   -3.0166702   -1.0996509 
H    -2.2495810   -3.0166702   -0.7845211 
H    -1.4401698   -3.0166702   -0.7845211 
