15
Energy = -448.6859604998
O     0.3227377    0.0000000    0.0000000 
O    -0.3227377    0.0000000    0.0000000 
H     1.6641101    2.8184188    1.7345439 
O     3.0159501    2.1371735   -0.2369094 
H     2.6112445    2.1371735    0.0782204 
H     3.4206557    2.1371735    0.0782204 
O    -0.4098278    0.9907570   -3.5419134 
H    -0.8145335    0.9907570   -3.2267836 
H    -0.0051222    0.9907570   -3.2267836 
O    -1.2222526   -1.4034112   -3.1990352 
H    -1.6269582   -1.4034112   -2.8839054 
H    -0.8175470   -1.4034112   -2.8839054 
O    -1.0441902    2.1431336    2.8389073 
H    -1.4488958    2.1431336    3.1540370 
H    -0.6394846    2.1431336    3.1540370 
