15
Energy = -448.6837402156
O     0.3227377    0.0000000    0.0000000 
O    -0.3227377    0.0000000    0.0000000 
H    -4.4702619    1.9834721   -2.0212454 
O    -3.5104723   -0.2597009   -3.9474348 
H    -3.9151779   -0.2597009   -3.6323051 
H    -3.1057667   -0.2597009   -3.6323051 
O    -2.2341628    4.4225994    1.8617116 
H    -2.6388685    4.4225994    2.1768413 
H    -1.8294572    4.4225994    2.1768413 
O     3.8621237    3.0094552   -2.0037256 
H     3.4574180    3.0094552   -1.6885958 
H     4.2668293    3.0094552   -1.6885958 
O     3.9270028   -1.8364686   -3.0308473 
H     3.5222972   -1.8364686   -2.7157175 
H     4.3317084   -1.8364686   -2.7157175 
