15
Energy = -448.4589925534
O     0.3227377    0.0000000    0.0000000 
O    -0.3227377    0.0000000    0.0000000 
H    -0.6410859   -2.4729382    2.6823451 
O    -0.1522621   -3.0348897    2.1221720 
H    -0.5569678   -3.0348897    2.4373017 
H     0.2524435   -3.0348897    2.4373017 
O    -0.1691143   -2.7136924   -2.5119190 
H    -0.5738199   -2.7136924   -2.1967893 
H     0.2355913   -2.7136924   -2.1967893 
O     2.6758760    0.3645689    2.5391475 
H     2.2711703    0.3645689    2.8542772 
H     3.0805816    0.3645689    2.8542772 
O     3.4714352    1.1218763    0.6455749 
H     3.0667296    1.1218763    0.9607046 
H     3.8761409    1.1218763    0.9607046 
