15
Energy = -448.6892288125
O     0.3227377    0.0000000    0.0000000 
O    -0.3227377    0.0000000    0.0000000 
H    -1.2238903    3.8652470   -3.4007049 
O    -0.7278203   -4.4157514   -2.8201076 
H    -1.1325259   -4.4157514   -2.5049778 
H    -0.3231147   -4.4157514   -2.5049778 
O     0.9194093    1.4352984   -5.0059702 
H     0.5147037    1.4352984   -4.6908404 
H     1.3241149    1.4352984   -4.6908404 
O     3.6840023    3.7346774   -0.6913238 
H     3.2792967    3.7346774   -0.3761940 
H     4.0887079    3.7346774   -0.3761940 
O    -2.2060980   -0.1125384    4.8124340 
H    -2.6108036   -0.1125384    5.1275638 
H    -1.8013923   -0.1125384    5.1275638 
