15
Energy = -448.3037246028
O     0.3227377    0.0000000    0.0000000 
O    -0.3227377    0.0000000    0.0000000 
H    -1.5401232    3.1800758    1.1119927 
O     0.0397090    3.6633491    0.5512003 
H    -0.3649966    3.6633491    0.8663301 
H     0.4444146    3.6633491    0.8663301 
O     2.6592704    2.1444067    1.4359621 
H     2.2545648    2.1444067    1.7510919 
H     3.0639760    2.1444067    1.7510919 
O    -2.7261582    0.2079133   -2.4954801 
H    -3.1308638    0.2079133   -2.1803504 
H    -2.3214525    0.2079133   -2.1803504 
O     3.4233179    1.3103604    0.5378429 
H     3.0186123    1.3103604    0.8529727 
H     3.8280235    1.3103604    0.8529727 
