15
Energy = -448.5905942919
O     0.3227377    0.0000000    0.0000000 
O    -0.3227377    0.0000000    0.0000000 
H     2.8056093    2.2633200    0.8528357 
O    -0.9557332   -0.3478336    3.5656426 
H    -1.3604388   -0.3478336    3.8807723 
H    -0.5510276   -0.3478336    3.8807723 
O    -0.5519478   -2.8823490    2.2640316 
H    -0.9566534   -2.8823490    2.5791613 
H    -0.1472422   -2.8823490    2.5791613 
O    -2.4799778   -2.6087081    0.8788312 
H    -2.8846834   -2.6087081    1.1939610 
H    -2.0752721   -2.6087081    1.1939610 
O    -2.5078410   -1.5649315    2.2360531 
H    -2.9125467   -1.5649315    2.5511828 
H    -2.1031354   -1.5649315    2.5511828 
