15
Energy = -448.7098462654
O     0.3227377    0.0000000    0.0000000 
O    -0.3227377    0.0000000    0.0000000 
H     2.1471081   -1.9732644    2.2841944 
O     2.7335438    0.1799858    2.4971022 
H     2.3288382    0.1799858    2.8122319 
H     3.1382495    0.1799858    2.8122319 
O    -1.3899353    0.3224332   -3.4146425 
H    -1.7946409    0.3224332   -3.0995128 
H    -0.9852297    0.3224332   -3.0995128 
O    -1.7482166   -3.1717281    0.7817550 
H    -2.1529222   -3.1717281    1.0968847 
H    -1.3435110   -3.1717281    1.0968847 
O     1.9805199    3.1231098    0.2161696 
H     1.5758143    3.1231098    0.5312993 
H     2.3852255    3.1231098    0.5312993 
