15
Energy = -448.3631413596
O     0.3227377    0.0000000    0.0000000 
O    -0.3227377    0.0000000    0.0000000 
H     1.7584561   -4.4484096    2.2632543 
O     2.3856919   -3.8951842    2.6756271 
H     1.9809863   -3.8951842    2.9907569 
H     2.7903975   -3.8951842    2.9907569 
O    -1.7493623   -3.2599565   -3.7797857 
H    -2.1540679   -3.2599565   -3.4646559 
H    -1.3446567   -3.2599565   -3.4646559 
O     0.8176673   -4.3393907    2.9199168 
H     0.4129617   -4.3393907    3.2350465 
H     1.2223729   -4.3393907    3.2350465 
O     3.7941428   -0.8050412   -3.5961279 
H     3.3894372   -0.8050412   -3.2809982 
H     4.1988484   -0.8050412   -3.2809982 
