15
Energy = -448.7033711390
O     0.3227377    0.0000000    0.0000000 
O    -0.3227377    0.0000000    0.0000000 
H     4.9433012   -0.0058099    1.8885379 
O     2.7279583   -4.4346156    0.9499482 
H     2.3232527   -4.4346156    1.2650780 
H     3.1326640   -4.4346156    1.2650780 
O    -2.0078156    2.7084034    4.0824975 
H    -2.4125212    2.7084034    4.3976273 
H    -1.6031099    2.7084034    4.3976273 
O     0.7451476    4.5675301   -2.5624116 
H     0.3404420    4.5675301   -2.2472819 
H     1.1498532    4.5675301   -2.2472819 
O     0.6122584   -1.3273177    5.0896472 
H     0.2075527   -1.3273177    5.4047770 
H     1.0169640   -1.3273177    5.4047770 
