15
Energy = -448.6939323787
O     0.3227377    0.0000000    0.0000000 
O    -0.3227377    0.0000000    0.0000000 
H    -2.1239961   -4.5828940    1.5775169 
O     5.0268385    1.5748705   -0.4997365 
H     4.6221329    1.5748705   -0.1846067 
H     5.4315442    1.5748705   -0.1846067 
O    -2.5953249    4.3404842    1.5617508 
H    -3.0000305    4.3404842    1.8768806 
H    -2.1906192    4.3404842    1.8768806 
O    -0.3639778   -2.1936724    4.8056555 
H    -0.7686835   -2.1936724    5.1207853 
H     0.0407278   -2.1936724    5.1207853 
O    -0.0129350   -0.4450355   -5.2692434 
H    -0.4176406   -0.4450355   -4.9541137 
H     0.3917706   -0.4450355   -4.9541137 
