15
Energy = -448.6145374491
O     0.3227377    0.0000000    0.0000000 
O    -0.3227377    0.0000000    0.0000000 
H    -2.1420293    3.0184572   -0.1483794 
O     0.8687891   -1.1382308   -3.4125239 
H     0.4640834   -1.1382308   -3.0973941 
H     1.2734947   -1.1382308   -3.0973941 
O    -3.4983153   -0.7341267   -0.9679545 
H    -3.9030209   -0.7341267   -0.6528247 
H    -3.0936097   -0.7341267   -0.6528247 
O    -1.8127197    2.5305091   -2.0042098 
H    -2.2174253    2.5305091   -1.6890801 
H    -1.4080141    2.5305091   -1.6890801 
O    -2.8319101    2.3649365    0.3335372 
H    -3.2366157    2.3649365    0.6486670 
H    -2.4272045    2.3649365    0.6486670 
