15
Energy = -448.6795471211
O     0.3227377    0.0000000    0.0000000 
O    -0.3227377    0.0000000    0.0000000 
H    -3.6981975   -3.7298245   -0.6438796 
O    -4.7790498    0.2198557   -2.2579125 
H    -5.1837554    0.2198557   -1.9427827 
H    -4.3743442    0.2198557   -1.9427827 
O    -2.2460113   -3.0648094   -3.6793338 
H    -2.6507169   -3.0648094   -3.3642040 
H    -1.8413057   -3.0648094   -3.3642040 
O     3.3503960    4.0873940    0.2700226 
H     2.9456904    4.0873940    0.5851523 
H     3.7551016    4.0873940    0.5851523 
O     0.9930634   -3.7235939   -3.6227366 
H     0.5883577   -3.7235939   -3.3076068 
H     1.3977690   -3.7235939   -3.3076068 
