15
Energy = -448.6795192376
O     0.3227377    0.0000000    0.0000000 
O    -0.3227377    0.0000000    0.0000000 
H    -2.0497438   -4.8786436   -0.0149442 
O     2.4971996   -2.7149268   -3.7904420 
H     2.0924940   -2.7149268   -3.4753122 
H     2.9019052   -2.7149268   -3.4753122 
O     1.2126556    3.5611070   -3.7179044 
H     0.8079499    3.5611070   -3.4027747 
H     1.6173612    3.5611070   -3.4027747 
O     2.1703918    0.4260627   -4.8035951 
H     1.7656862    0.4260627   -4.4884653 
H     2.5750975    0.4260627   -4.4884653 
O    -2.6948080   -1.9216023    4.1327220 
H    -3.0995136   -1.9216023    4.4478518 
H    -2.2901023   -1.9216023    4.4478518 
