15
Energy = -448.6867088472
O     0.3227377    0.0000000    0.0000000 
O    -0.3227377    0.0000000    0.0000000 
H     3.5744625    2.7159473    2.8017287 
O     1.8911495    3.6718103    3.3119662 
H     1.4864439    3.6718103    3.6270960 
H     2.2958551    3.6718103    3.6270960 
O     0.5172542    5.2085605    0.7823408 
H     0.1125486    5.2085605    1.0974706 
H     0.9219598    5.2085605    1.0974706 
O    -2.5772919   -3.3500281   -3.1802132 
H    -2.9819976   -3.3500281   -2.8650835 
H    -2.1725863   -3.3500281   -2.8650835 
O     2.4785159   -2.5373639   -3.9232674 
H     2.0738103   -2.5373639   -3.6081377 
H     2.8832215   -2.5373639   -3.6081377 
