15
Energy = -448.7152713030
O     0.3227377    0.0000000    0.0000000 
O    -0.3227377    0.0000000    0.0000000 
H     2.3680245   -1.2893809    2.5399501 
O    -1.9393313    3.1126316   -0.5176838 
H    -2.3440370    3.1126316   -0.2025541 
H    -1.5346257    3.1126316   -0.2025541 
O    -2.7066245   -2.3774668    0.8658697 
H    -3.1113301   -2.3774668    1.1809994 
H    -2.3019188   -2.3774668    1.1809994 
O     0.0806074    2.8458781   -2.3660182 
H    -0.3240982    2.8458781   -2.0508884 
H     0.4853130    2.8458781   -2.0508884 
O     1.7414678    0.9889123    3.1199692 
H     1.3367622    0.9889123    3.4350989 
H     2.1461734    0.9889123    3.4350989 
