15
Energy = -448.4692860383
O     0.3227377    0.0000000    0.0000000 
O    -0.3227377    0.0000000    0.0000000 
H    -3.8373932   -3.6434252   -0.0519823 
O    -4.1587576    2.8240020    1.6568173 
H    -4.5634633    2.8240020    1.9719471 
H    -3.7540520    2.8240020    1.9719471 
O    -1.2037821    4.4736984    2.5610613 
H    -1.6084877    4.4736984    2.8761911 
H    -0.7990765    4.4736984    2.8761911 
O     2.2620401    3.9929273    2.6386349 
H     1.8573345    3.9929273    2.9537646 
H     2.6667457    3.9929273    2.9537646 
O     3.5547168    3.4388350    1.8855823 
H     3.1500112    3.4388350    2.2007121 
H     3.9594224    3.4388350    2.2007121 
