15
Energy = -448.6737653110
O     0.3227377    0.0000000    0.0000000 
O    -0.3227377    0.0000000    0.0000000 
H     1.8156179    1.9120537    2.6017248 
O    -2.8757300    0.5508601    2.2727114 
H    -3.2804356    0.5508601    2.5878411 
H    -2.4710243    0.5508601    2.5878411 
O    -2.2563106    1.6903693   -2.3989639 
H    -2.6610162    1.6903693   -2.0838342 
H    -1.8516050    1.6903693   -2.0838342 
O     2.3461507   -1.2940859   -2.5540292 
H     1.9414450   -1.2940859   -2.2388995 
H     2.7508563   -1.2940859   -2.2388995 
O    -1.1829408   -0.1565092   -3.5030212 
H    -1.5876464   -0.1565092   -3.1878914 
H    -0.7782352   -0.1565092   -3.1878914 
