15
Energy = -448.6921417679
O     0.3227377    0.0000000    0.0000000 
O    -0.3227377    0.0000000    0.0000000 
H     2.9138452    0.3325568   -4.4047416 
O    -3.8696840   -3.1486825   -1.7609396 
H    -4.2743896   -3.1486825   -1.4458098 
H    -3.4649784   -3.1486825   -1.4458098 
O    -4.9523636    1.7515254   -0.6358371 
H    -5.3570692    1.7515254   -0.3207074 
H    -4.5476579    1.7515254   -0.3207074 
O     2.3027006    3.5482878    3.1833965 
H     1.8979950    3.5482878    3.4985263 
H     2.7074062    3.5482878    3.4985263 
O     5.2474356    0.5376335   -0.4183804 
H     4.8427300    0.5376335   -0.1032506 
H     5.6521412    0.5376335   -0.1032506 
