15
Energy = -448.6915550268
O     0.3227377    0.0000000    0.0000000 
O    -0.3227377    0.0000000    0.0000000 
H     1.6714106    1.2327380    4.8671942 
O     4.5393336   -2.4891491    1.0998593 
H     4.1346279   -2.4891491    1.4149890 
H     4.9440392   -2.4891491    1.4149890 
O    -4.2293431    3.1702846    0.2583005 
H    -4.6340487    3.1702846    0.5734303 
H    -3.8246375    3.1702846    0.5734303 
O     0.5025664   -4.8966026    1.9463263 
H     0.0978608   -4.8966026    2.2614560 
H     0.9072720   -4.8966026    2.2614560 
O     0.2152248    1.5303818   -5.0573072 
H    -0.1894808    1.5303818   -4.7421774 
H     0.6199304    1.5303818   -4.7421774 
