15
Energy = -448.6661601294
O     0.3227377    0.0000000    0.0000000 
O    -0.3227377    0.0000000    0.0000000 
H    -3.6432098    3.5280062    1.5109701 
O    -1.1277587   -4.5101532   -2.5239845 
H    -1.5324643   -4.5101532   -2.2088548 
H    -0.7230530   -4.5101532   -2.2088548 
O     4.2804536   -2.5001144   -1.8482564 
H     3.8757479   -2.5001144   -1.5331267 
H     4.6851592   -2.5001144   -1.5331267 
O    -2.4250152    4.2155315    2.0897729 
H    -2.8297209    4.2155315    2.4049027 
H    -2.0203096    4.2155315    2.4049027 
O    -1.6608588   -2.2973758   -4.4646188 
H    -2.0655644   -2.2973758   -4.1494890 
H    -1.2561532   -2.2973758   -4.1494890 
