15
Energy = -448.6887495770
O     0.3227377    0.0000000    0.0000000 
O    -0.3227377    0.0000000    0.0000000 
H    -0.9429309    0.0912104   -5.2062845 
O    -3.8160920    1.3973863   -3.3855702 
H    -4.2207976    1.3973863   -3.0704404 
H    -3.4113864    1.3973863   -3.0704404 
O     4.2193581    1.4175923    2.8656319 
H     3.8146525    1.4175923    3.1807617 
H     4.6240637    1.4175923    3.1807617 
O    -1.7252971   -3.2237865   -3.8215965 
H    -2.1300028   -3.2237865   -3.5064667 
H    -1.3205915   -3.2237865   -3.5064667 
O     3.1979025   -3.3086099    2.6170683 
H     2.7931968   -3.3086099    2.9321980 
H     3.6026081   -3.3086099    2.9321980 
