15
Energy = -448.6969529866
O     0.3227377    0.0000000    0.0000000 
O    -0.3227377    0.0000000    0.0000000 
H    -4.5287952   -0.0589306    2.7366727 
O     4.6074286    2.4718025   -0.8114843 
H     4.2027229    2.4718025   -0.4963545 
H     5.0121342    2.4718025   -0.4963545 
O     2.1410404   -3.2267641   -3.6027262 
H     1.7363348   -3.2267641   -3.2875965 
H     2.5457460   -3.2267641   -3.2875965 
O     3.9301292   -2.4775685    2.5372551 
H     3.5254236   -2.4775685    2.8523848 
H     4.3348349   -2.4775685    2.8523848 
O    -1.6517042   -0.6064625    4.9944470 
H    -2.0564099   -0.6064625    5.3095768 
H    -1.2469986   -0.6064625    5.3095768 
