15
Energy = -448.6034728600
O     0.3227377    0.0000000    0.0000000 
O    -0.3227377    0.0000000    0.0000000 
H    -1.2291612   -3.7694916   -3.5047015 
O     0.8311086   -3.3105376    4.0475790 
H     0.4264029   -3.3105376    4.3627087 
H     1.2358142   -3.3105376    4.3627087 
O     2.2891657   -4.3144085    2.0405355 
H     1.8844601   -4.3144085    2.3556652 
H     2.6938713   -4.3144085    2.3556652 
O    -0.2531407    5.1191307    1.3202965 
H    -0.6578463    5.1191307    1.6354263 
H     0.1515649    5.1191307    1.6354263 
O     3.7379233   -3.4745702    1.4030955 
H     3.3332177   -3.4745702    1.7182252 
H     4.1426289   -3.4745702    1.7182252 
