15
Energy = -448.6676174634
O     0.3227377    0.0000000    0.0000000 
O    -0.3227377    0.0000000    0.0000000 
H    -3.7561206    3.6593153    0.7097930 
O    -1.9187705    2.9940239   -3.9150335 
H    -2.3234761    2.9940239   -3.5999037 
H    -1.5140648    2.9940239   -3.5999037 
O     3.0154781    3.5797384   -2.4650816 
H     2.6107725    3.5797384   -2.1499518 
H     3.4201838    3.5797384   -2.1499518 
O    -1.0603304    4.7693520    2.0364516 
H    -1.4650360    4.7693520    2.3515814 
H    -0.6556248    4.7693520    2.3515814 
O    -3.7518517    2.4278900   -2.8302777 
H    -4.1565573    2.4278900   -2.5151480 
H    -3.3471461    2.4278900   -2.5151480 
