15
Energy = -448.6955540418
O     0.3227377    0.0000000    0.0000000 
O    -0.3227377    0.0000000    0.0000000 
H    -1.8523049   -2.4434747   -2.0784099 
O     2.5850901    2.4347880   -1.0500411 
H     2.1803845    2.4347880   -0.7349114 
H     2.9897957    2.4347880   -0.7349114 
O    -0.3034464    2.2112829   -2.9525065 
H    -0.7081520    2.2112829   -2.6373767 
H     0.1012592    2.2112829   -2.6373767 
O    -3.1651694    1.8391694   -0.5624055 
H    -3.5698750    1.8391694   -0.2472757 
H    -2.7604638    1.8391694   -0.2472757 
O     2.8213474    2.0065858    1.3209590 
H     2.4166418    2.0065858    1.6360888 
H     3.2260531    2.0065858    1.6360888 
