15
Energy = -448.6929706070
O     0.3227377    0.0000000    0.0000000 
O    -0.3227377    0.0000000    0.0000000 
H    -2.2412400   -4.0294094   -2.5968325 
O     3.0667690    3.4912615    2.5353366 
H     2.6620634    3.4912615    2.8504663 
H     3.4714746    3.4912615    2.8504663 
O     3.5011421    2.9610381   -2.6376544 
H     3.0964365    2.9610381   -2.3225247 
H     3.9058477    2.9610381   -2.3225247 
O     4.1666151   -1.5486916    2.8749505 
H     3.7619094   -1.5486916    3.1900803 
H     4.5713207   -1.5486916    3.1900803 
O    -1.6663496    3.7178945   -3.3731240 
H    -2.0710552    3.7178945   -3.0579942 
H    -1.2616440    3.7178945   -3.0579942 
