15
Energy = -448.4049975889
O     0.3227377    0.0000000    0.0000000 
O    -0.3227377    0.0000000    0.0000000 
H     1.5174372   -3.3779659   -0.0901139 
O     2.0179831    2.0858192   -2.2980809 
H     1.6132775    2.0858192   -1.9829512 
H     2.4226887    2.0858192   -1.9829512 
O     1.7691120    3.2528388    0.1070697 
H     1.3644064    3.2528388    0.4221995 
H     2.1738176    3.2528388    0.4221995 
O     0.9508466   -1.6418267    3.1852241 
H     0.5461409   -1.6418267    3.5003539 
H     1.3555522   -1.6418267    3.5003539 
O     1.9697308   -0.5548353    3.0914348 
H     1.5650252   -0.5548353    3.4065646 
H     2.3744364   -0.5548353    3.4065646 
