15
Energy = -448.4294454667
O     0.3227377    0.0000000    0.0000000 
O    -0.3227377    0.0000000    0.0000000 
H    -0.1670391    2.0508619   -3.0801709 
O    -2.5196594   -1.5276608    2.2485270 
H    -2.9243650   -1.5276608    2.5636567 
H    -2.1149538   -1.5276608    2.5636567 
O     3.3518569   -1.5760399    0.0541953 
H     2.9471513   -1.5760399    0.3693251 
H     3.7565625   -1.5760399    0.3693251 
O    -3.2851255   -0.3588466    1.6772547 
H    -3.6898311   -0.3588466    1.9923845 
H    -2.8804198   -0.3588466    1.9923845 
O     2.1818131   -2.0018436    2.2294562 
H     1.7771075   -2.0018436    2.5445859 
H     2.5865187   -2.0018436    2.5445859 
