15
Energy = -448.6846692224
O     0.3227377    0.0000000    0.0000000 
O    -0.3227377    0.0000000    0.0000000 
H     0.8247640   -2.7405135   -2.3517525 
O    -0.0832554    2.2124376    2.9735419 
H    -0.4879610    2.2124376    3.2886716 
H     0.3214502    2.2124376    3.2886716 
O    -0.8091881   -2.6731116   -2.4295622 
H    -1.2138938   -2.6731116   -2.1144325 
H    -0.4044825   -2.6731116   -2.1144325 
O     1.2207123   -1.1345543    3.3119419 
H     0.8160067   -1.1345543    3.6270716 
H     1.6254179   -1.1345543    3.6270716 
O     2.5261580    2.2904534   -1.4432113 
H     2.1214524    2.2904534   -1.1280815 
H     2.9308636    2.2904534   -1.1280815 
