15
Energy = -448.6905756180
O     0.3227377    0.0000000    0.0000000 
O    -0.3227377    0.0000000    0.0000000 
H    -2.2613128    3.2698718   -3.4924545 
O     1.3153103   -4.7905608    1.8267627 
H     0.9106047   -4.7905608    2.1418925 
H     1.7200159   -4.7905608    2.1418925 
O    -4.3323768    0.2019878   -3.0281570 
H    -4.7370825    0.2019878   -2.7130273 
H    -3.9276712    0.2019878   -2.7130273 
O    -0.9071644   -4.3271111   -2.9041556 
H    -1.3118700   -4.3271111   -2.5890258 
H    -0.5024587   -4.3271111   -2.5890258 
O    -2.4209659    4.6522501    0.7096885 
H    -2.8256716    4.6522501    1.0248183 
H    -2.0162603    4.6522501    1.0248183 
