15
Energy = -448.7049520195
O     0.3227377    0.0000000    0.0000000 
O    -0.3227377    0.0000000    0.0000000 
H     3.5665935   -0.9626250    0.2723110 
O    -1.5654353    2.1896670   -2.5410656 
H    -1.9701410    2.1896670   -2.2259359 
H    -1.1607297    2.1896670   -2.2259359 
O     2.1605690    2.8080296   -1.0771153 
H     1.7558633    2.8080296   -0.7619855 
H     2.5652746    2.8080296   -0.7619855 
O    -3.5999588    0.8676650   -0.0902765 
H    -4.0046644    0.8676650    0.2248532 
H    -3.1952532    0.8676650    0.2248532 
O     1.0701385    2.7286144    2.2689039 
H     0.6654329    2.7286144    2.5840336 
H     1.4748441    2.7286144    2.5840336 
