15
Energy = -448.6440089113
O     0.3227377    0.0000000    0.0000000 
O    -0.3227377    0.0000000    0.0000000 
H    -3.2588663    1.7171736   -0.3905062 
O     3.2904230   -1.6173026   -0.5242871 
H     2.8857174   -1.6173026   -0.2091574 
H     3.6951286   -1.6173026   -0.2091574 
O     2.6307466   -1.0453389   -2.3853417 
H     2.2260410   -1.0453389   -2.0702120 
H     3.0354523   -1.0453389   -2.0702120 
O     2.9948990    2.1761761   -0.1236218 
H     2.5901934    2.1761761    0.1915079 
H     3.3996046    2.1761761    0.1915079 
O    -2.2927945    2.3567121   -1.7022224 
H    -2.6975001    2.3567121   -1.3870926 
H    -1.8880889    2.3567121   -1.3870926 
