15
Energy = -448.6893341362
O     0.3227377    0.0000000    0.0000000 
O    -0.3227377    0.0000000    0.0000000 
H    -2.9679062   -4.2370173   -1.1144745 
O     0.9067352    1.4361449   -5.0080371 
H     0.5020295    1.4361449   -4.6929074 
H     1.3114408    1.4361449   -4.6929074 
O     0.2768186   -4.5409558    2.7067125 
H    -0.1278870   -4.5409558    3.0218422 
H     0.6815242   -4.5409558    3.0218422 
O     3.4184431   -2.0553424   -3.4736844 
H     3.0137375   -2.0553424   -3.1585547 
H     3.8231487   -2.0553424   -3.1585547 
O    -3.5914325    3.1190695    2.3223533 
H    -3.9961381    3.1190695    2.6374831 
H    -3.1867268    3.1190695    2.6374831 
