15
Energy = -448.6714705599
O     0.3227377    0.0000000    0.0000000 
O    -0.3227377    0.0000000    0.0000000 
H     3.8105435    0.4507993   -3.6440876 
O     0.3247848   -2.6385215   -4.5717743 
H    -0.0799208   -2.6385215   -4.2566446 
H     0.7294904   -2.6385215   -4.2566446 
O    -1.1514692    0.6599109   -5.1188786 
H    -1.5561749    0.6599109   -4.8037489 
H    -0.7467636    0.6599109   -4.8037489 
O    -3.1212816    3.2138357    2.8200913 
H    -3.5259872    3.2138357    3.1352211 
H    -2.7165760    3.2138357    3.1352211 
O     2.4620553   -3.1229162   -3.4874408 
H     2.0573497   -3.1229162   -3.1723110 
H     2.8667609   -3.1229162   -3.1723110 
