15
Energy = -448.6295041587
O     0.3227377    0.0000000    0.0000000 
O    -0.3227377    0.0000000    0.0000000 
H    -2.6583413    1.9156984    1.7276315 
O    -2.5695596    2.6165562    0.5256715 
H    -2.9742652    2.6165562    0.8408012 
H    -2.1648540    2.6165562    0.8408012 
O    -2.3629485   -2.7336066   -0.8118697 
H    -2.7676541   -2.7336066   -0.4967400 
H    -1.9582429   -2.7336066   -0.4967400 
O    -3.5280600   -0.7263047   -0.8603327 
H    -3.9327656   -0.7263047   -0.5452029 
H    -3.1233544   -0.7263047   -0.5452029 
O     1.4366925    2.2721768   -2.5446698 
H     1.0319869    2.2721768   -2.2295400 
H     1.8413981    2.2721768   -2.2295400 
