15
Energy = -448.7004039238
O     0.3227377    0.0000000    0.0000000 
O    -0.3227377    0.0000000    0.0000000 
H     0.7434965    3.2256796   -1.6624059 
O     1.9814060    1.1966286    2.8957361 
H     1.5767004    1.1966286    3.2108659 
H     2.3861116    1.1966286    3.2108659 
O    -1.2125000   -2.3148878   -2.6215980 
H    -1.6172056   -2.3148878   -2.3064682 
H    -0.8077943   -2.3148878   -2.3064682 
O    -1.5612908    2.8581822   -1.7610457 
H    -1.9659965    2.8581822   -1.4459160 
H    -1.1565852    2.8581822   -1.4459160 
O    -3.1824408    1.6421006    0.9508473 
H    -3.5871464    1.6421006    1.2659770 
H    -2.7777352    1.6421006    1.2659770 
