15
Energy = -448.2134835874
O     0.3227377    0.0000000    0.0000000 
O    -0.3227377    0.0000000    0.0000000 
H     1.1307660   -4.6116590    2.3359807 
O    -4.3725119    1.6580000    2.4806601 
H    -4.7772175    1.6580000    2.7957899 
H    -3.9678062    1.6580000    2.7957899 
O    -3.4369235    2.1726891    3.3904760 
H    -3.8416291    2.1726891    3.7056057 
H    -3.0322179    2.1726891    3.7056057 
O    -3.5628218   -3.6602607    1.3863810 
H    -3.9675275   -3.6602607    1.7015107 
H    -3.1581162   -3.6602607    1.7015107 
O     1.3602109    4.8719588   -1.5508030 
H     0.9555053    4.8719588   -1.2356733 
H     1.7649165    4.8719588   -1.2356733 
