15
Energy = -448.6351567634
O     0.3227377    0.0000000    0.0000000 
O    -0.3227377    0.0000000    0.0000000 
H    -1.7425231   -3.6164307   -3.4478803 
O     4.2787267   -1.1956829   -2.8712445 
H     3.8740211   -1.1956829   -2.5561147 
H     4.6834323   -1.1956829   -2.5561147 
O    -3.5652786    1.1197270    3.7504745 
H    -3.9699842    1.1197270    4.0656042 
H    -3.1605730    1.1197270    4.0656042 
O     2.9178446   -1.3184286   -4.2094012 
H     2.5131390   -1.3184286   -3.8942714 
H     3.3225502   -1.3184286   -3.8942714 
O     3.7747427    1.2564448    3.4931054 
H     3.3700370    1.2564448    3.8082352 
H     4.1794483    1.2564448    3.8082352 
