15
Energy = -448.7015668098
O     0.3227377    0.0000000    0.0000000 
O    -0.3227377    0.0000000    0.0000000 
H     4.6928267   -0.3306076    2.4229965 
O     3.6430335   -3.8380927    0.0174537 
H     3.2383278   -3.8380927    0.3325835 
H     4.0477391   -3.8380927    0.3325835 
O    -4.7003520   -1.3556251    2.0216366 
H    -5.1050576   -1.3556251    2.3367664 
H    -4.2956463   -1.3556251    2.3367664 
O    -2.0887018   -1.5479023    4.6129031 
H    -2.4934074   -1.5479023    4.9280329 
H    -1.6839962   -1.5479023    4.9280329 
O    -2.9368271   -3.4570741    2.7289289 
H    -3.3415328   -3.4570741    3.0440587 
H    -2.5321215   -3.4570741    3.0440587 
