15
Energy = -448.3018742783
O     0.3227377    0.0000000    0.0000000 
O    -0.3227377    0.0000000    0.0000000 
H    -2.9440377    2.1545751    0.6417461 
O    -0.6773605    3.5442358   -0.8334719 
H    -1.0820662    3.5442358   -0.5183422 
H    -0.2726549    3.5442358   -0.5183422 
O    -2.5169089    2.4287723    1.2234466 
H    -2.9216145    2.4287723    1.5385763 
H    -2.1122032    2.4287723    1.5385763 
O    -1.4450296    2.7861072   -1.9636922 
H    -1.8497352    2.7861072   -1.6485624 
H    -1.0403239    2.7861072   -1.6485624 
O     0.3885730   -3.0540605   -2.0561179 
H    -0.0161326   -3.0540605   -1.7409882 
H     0.7932786   -3.0540605   -1.7409882 
