15
Energy = -448.6201351847
O     0.3227377    0.0000000    0.0000000 
O    -0.3227377    0.0000000    0.0000000 
H    -2.1405969   -4.2475310   -2.3193020 
O    -0.8215169   -4.4527848   -2.7349676 
H    -1.2262226   -4.4527848   -2.4198379 
H    -0.4168113   -4.4527848   -2.4198379 
O     2.4085208    4.6669030    0.6532872 
H     2.0038152    4.6669030    0.9684170 
H     2.8132264    4.6669030    0.9684170 
O     2.2477617   -0.0963072    4.7934543 
H     1.8430561   -0.0963072    5.1085840 
H     2.6524673   -0.0963072    5.1085840 
O     2.9934232   -3.6357942   -2.4093775 
H     2.5887176   -3.6357942   -2.0942478 
H     3.3981288   -3.6357942   -2.0942478 
