15
Energy = -448.6998628688
O     0.3227377    0.0000000    0.0000000 
O    -0.3227377    0.0000000    0.0000000 
H     0.5219072   -3.7743694   -3.6721363 
O     3.6427256   -3.6261707   -1.2549143 
H     3.2380200   -3.6261707   -0.9397845 
H     4.0474312   -3.6261707   -0.9397845 
O     3.9151183   -3.3754217    1.1356715 
H     3.5104127   -3.3754217    1.4508013 
H     4.3198239   -3.3754217    1.4508013 
O    -3.1932705    4.1609943    0.7051820 
H    -3.5979761    4.1609943    1.0203117 
H    -2.7885648    4.1609943    1.0203117 
O    -1.6395443   -1.4416101    4.8241888 
H    -2.0442499   -1.4416101    5.1393186 
H    -1.2348387   -1.4416101    5.1393186 
