15
Energy = -448.6959648147
O     0.3227377    0.0000000    0.0000000 
O    -0.3227377    0.0000000    0.0000000 
H    -2.8175591   -4.4734929    0.2281630 
O     5.0123491   -1.4850745    0.8245852 
H     4.6076435   -1.4850745    1.1397150 
H     5.4170547   -1.4850745    1.1397150 
O    -4.4012540   -2.7138768    1.1292298 
H    -4.8059596   -2.7138768    1.4443596 
H    -3.9965483   -2.7138768    1.4443596 
O     2.6995390    2.7359247    3.6410769 
H     2.2948334    2.7359247    3.9562066 
H     3.1042446    2.7359247    3.9562066 
O    -3.6986994   -1.5457677   -3.4506618 
H    -4.1034050   -1.5457677   -3.1355321 
H    -3.2939938   -1.5457677   -3.1355321 
