15
Energy = -448.7370156795
O     0.3227377    0.0000000    0.0000000 
O    -0.3227377    0.0000000    0.0000000 
H     2.8974258   -0.1255470    2.3044634 
O    -0.1469372   -0.8248540    3.6120071 
H    -0.5516429   -0.8248540    3.9271369 
H     0.2577684   -0.8248540    3.9271369 
O     3.1447946   -1.8473045    0.6511612 
H     2.7400890   -1.8473045    0.9662909 
H     3.5495002   -1.8473045    0.9662909 
O     1.5497151    1.9930155    2.7144216 
H     1.1450095    1.9930155    3.0295514 
H     1.9544207    1.9930155    3.0295514 
O     0.3403333   -3.6865240    0.1266620 
H    -0.0643723   -3.6865240    0.4417918 
H     0.7450389   -3.6865240    0.4417918 
