15
Energy = -448.7142573071
O     0.3227377    0.0000000    0.0000000 
O    -0.3227377    0.0000000    0.0000000 
H    -2.0963368   -2.6064230    1.5916408 
O    -1.4448631   -0.2613823    3.4045643 
H    -1.8495687   -0.2613823    3.7196941 
H    -1.0401575   -0.2613823    3.7196941 
O     1.9984817   -2.9379586   -1.0430688 
H     1.5937761   -2.9379586   -0.7279391 
H     2.4031873   -2.9379586   -0.7279391 
O     3.0831765   -0.6507180   -1.9435359 
H     2.6784709   -0.6507180   -1.6284061 
H     3.4878821   -0.6507180   -1.6284061 
O    -0.2703300    2.3866538    2.8237281 
H    -0.6750356    2.3866538    3.1388579 
H     0.1343756    2.3866538    3.1388579 
