15
Energy = -448.6306542016
O     0.3227377    0.0000000    0.0000000 
O    -0.3227377    0.0000000    0.0000000 
H     3.1392909    3.2458458   -2.7590168 
O     3.5290209   -3.7947997   -1.0678431 
H     3.1243153   -3.7947997   -0.7527134 
H     3.9337265   -3.7947997   -0.7527134 
O     2.6661352   -0.2671967   -4.5594762 
H     2.2614296   -0.2671967   -4.2443464 
H     3.0708408   -0.2671967   -4.2443464 
O     3.4703446    2.2790442   -3.2773180 
H     3.0656389    2.2790442   -2.9621883 
H     3.8750502    2.2790442   -2.9621883 
O    -2.2567445    2.7894369    3.8933637 
H    -2.6614501    2.7894369    4.2084934 
H    -1.8520389    2.7894369    4.2084934 
