15
Energy = -448.6883389294
O     0.3227377    0.0000000    0.0000000 
O    -0.3227377    0.0000000    0.0000000 
H    -3.2732787   -4.1565624    0.1071032 
O     2.8238476   -4.2304157    1.4640055 
H     2.4191420   -4.2304157    1.7791353 
H     3.2285533   -4.2304157    1.7791353 
O    -2.1667566    1.0078421   -4.7177031 
H    -2.5714622    1.0078421   -4.4025734 
H    -1.7620510    1.0078421   -4.4025734 
O    -1.6780110    4.4503072    2.3236525 
H    -2.0827166    4.4503072    2.6387823 
H    -1.2733053    4.4503072    2.6387823 
O    -2.3145304   -2.9667488   -3.7170133 
H    -2.7192360   -2.9667488   -3.4018835 
H    -1.9098247   -2.9667488   -3.4018835 
