15
Energy = -448.6873247211
O     0.3227377    0.0000000    0.0000000 
O    -0.3227377    0.0000000    0.0000000 
H     3.9741793   -0.6187669    3.4388752 
O    -4.0160649    2.6167450   -2.2382670 
H    -4.4207705    2.6167450   -1.9231372 
H    -3.6113592    2.6167450   -1.9231372 
O     2.7743439    3.6434961    2.6553278 
H     2.3696383    3.6434961    2.9704575 
H     3.1790495    3.6434961    2.9704575 
O    -2.0645642    3.3836347   -3.5021486 
H    -2.4692699    3.3836347   -3.1870189 
H    -1.6598586    3.3836347   -3.1870189 
O    -4.5851029    1.1872517    2.3638707 
H    -4.9898085    1.1872517    2.6790004 
H    -4.1803972    1.1872517    2.6790004 
