15
Energy = -448.7270792988
O     0.3227377    0.0000000    0.0000000 
O    -0.3227377    0.0000000    0.0000000 
H    -3.1938008    1.2783280   -1.3736461 
O    -1.6373984    0.1516919    3.3229972 
H    -2.0421040    0.1516919    3.6381269 
H    -1.2326928    0.1516919    3.6381269 
O     1.9046109    1.6820479   -2.6915207 
H     1.4999053    1.6820479   -2.3763909 
H     2.3093165    1.6820479   -2.3763909 
O     0.8833581   -3.5296232    0.6986231 
H     0.4786524   -3.5296232    1.0137528 
H     1.2880637   -3.5296232    1.0137528 
O     1.9079896    2.6476164    1.7562178 
H     1.5032840    2.6476164    2.0713475 
H     2.3126953    2.6476164    2.0713475 
