15
Energy = -448.6851288884
O     0.3227377    0.0000000    0.0000000 
O    -0.3227377    0.0000000    0.0000000 
H     2.1339799   -3.0141823    3.7899434 
O    -2.2328105    2.1545358   -4.2828856 
H    -2.6375161    2.1545358   -3.9677559 
H    -1.8281048    2.1545358   -3.9677559 
O     3.0666435    4.0398811   -1.5055050 
H     2.6619379    4.0398811   -1.1903752 
H     3.4713492    4.0398811   -1.1903752 
O     3.4521613    1.9306465   -3.5116335 
H     3.0474557    1.9306465   -3.1965037 
H     3.8568669    1.9306465   -3.1965037 
O    -2.5944322    3.9763861    2.3404526 
H    -2.9991378    3.9763861    2.6555824 
H    -2.1897266    3.9763861    2.6555824 
