15
Energy = -448.6953986121
O     0.3227377    0.0000000    0.0000000 
O    -0.3227377    0.0000000    0.0000000 
H    -2.1433729   -3.3465352   -3.4942082 
O    -1.8151773    1.7654982    4.6503743 
H    -2.2198830    1.7654982    4.9655041 
H    -1.4104717    1.7654982    4.9655041 
O    -4.6861602    2.2963408    0.8810086 
H    -5.0908658    2.2963408    1.1961383 
H    -4.2814546    2.2963408    1.1961383 
O     3.2308055   -2.4487080   -3.3974943 
H     2.8260999   -2.4487080   -3.0823645 
H     3.6355112   -2.4487080   -3.0823645 
O    -4.8172203   -0.3934689    2.1583889 
H    -5.2219260   -0.3934689    2.4735187 
H    -4.4125147   -0.3934689    2.4735187 
