15
Energy = -448.7206772695
O     0.3227377    0.0000000    0.0000000 
O    -0.3227377    0.0000000    0.0000000 
H    -2.8933786   -0.2490552    2.2995047 
O    -1.9433526   -3.1535117   -0.0078262 
H    -2.3480582   -3.1535117    0.3073036 
H    -1.5386470   -3.1535117    0.3073036 
O     2.3589436   -2.6750034    1.0043301 
H     1.9542380   -2.6750034    1.3194598 
H     2.7636493   -2.6750034    1.3194598 
O     1.7604215    1.7096641    2.7785356 
H     1.3557159    1.7096641    3.0936653 
H     2.1651271    1.7096641    3.0936653 
O     0.5123912   -1.9914903   -3.0772762 
H     0.1076855   -1.9914903   -2.7621464 
H     0.9170968   -1.9914903   -2.7621464 
