15
Energy = -448.6916005149
O     0.3227377    0.0000000    0.0000000 
O    -0.3227377    0.0000000    0.0000000 
H     3.6486158   -1.6233966   -3.4720343 
O    -1.3855412    2.5508514   -4.4207433 
H    -1.7902468    2.5508514   -4.1056135 
H    -0.9808355    2.5508514   -4.1056135 
O     4.0581589    0.6498517   -3.3296835 
H     3.6534533    0.6498517   -3.0145537 
H     4.4628645    0.6498517   -3.0145537 
O     4.7069522    1.2673515    2.0631959 
H     4.3022465    1.2673515    2.3783256 
H     5.1116578    1.2673515    2.3783256 
O    -0.8751920    5.0394877    1.3603923 
H    -1.2798976    5.0394877    1.6755221 
H    -0.4704863    5.0394877    1.6755221 
