15
Energy = -448.6579190558
O     0.3227377    0.0000000    0.0000000 
O    -0.3227377    0.0000000    0.0000000 
H     4.1177224   -2.9839150   -1.4640523 
O     3.0810544   -0.4194100   -4.2780617 
H     2.6763488   -0.4194100   -3.9629319 
H     3.4857601   -0.4194100   -3.9629319 
O    -4.3846622    1.3644918    2.6335431 
H    -4.7893678    1.3644918    2.9486728 
H    -3.9799566    1.3644918    2.9486728 
O     3.0623995    1.7243856    3.9599039 
H     2.6576939    1.7243856    4.2750337 
H     3.4671051    1.7243856    4.2750337 
O     4.6445542   -2.4287331   -0.7257613 
H     4.2398486   -2.4287331   -0.4106315 
H     5.0492598   -2.4287331   -0.4106315 
