15
Energy = -448.6872535300
O     0.3227377    0.0000000    0.0000000 
O    -0.3227377    0.0000000    0.0000000 
H     4.2824462   -2.9134598   -1.0840859 
O     2.8107288   -1.5518573   -4.2027042 
H     2.4060232   -1.5518573   -3.8875745 
H     3.2154344   -1.5518573   -3.8875745 
O     0.2630179    4.8429242   -2.1127760 
H    -0.1416877    4.8429242   -1.7976462 
H     0.6677235    4.8429242   -1.7976462 
O     4.1668171    2.1932756   -2.4107776 
H     3.7621115    2.1932756   -2.0956478 
H     4.5715228    2.1932756   -2.0956478 
O    -1.7962578   -3.5719436    3.4703930 
H    -2.2009634   -3.5719436    3.7855227 
H    -1.3915522   -3.5719436    3.7855227 
