15
Energy = -448.6951382496
O     0.3227377    0.0000000    0.0000000 
O    -0.3227377    0.0000000    0.0000000 
H     4.4543613   -1.3430354    2.5214594 
O    -2.8728769   -4.4440186    0.0143676 
H    -3.2775826   -4.4440186    0.3294974 
H    -2.4681713   -4.4440186    0.3294974 
O    -0.5523545    3.4953042    3.9383024 
H    -0.9570601    3.4953042    4.2534322 
H    -0.1476488    3.4953042    4.2534322 
O     2.7508647   -4.0172673    2.0767195 
H     2.3461591   -4.0172673    2.3918492 
H     3.1555704   -4.0172673    2.3918492 
O    -2.1617545   -4.3588849    2.0845759 
H    -2.5664602   -4.3588849    2.3997057 
H    -1.7570489   -4.3588849    2.3997057 
