15
Energy = -448.6049686176
O     0.3227377    0.0000000    0.0000000 
O    -0.3227377    0.0000000    0.0000000 
H    -2.5166843    4.0624964    2.2727207 
O     3.3167501    3.2975166    2.4793227 
H     2.9120445    3.2975166    2.7944525 
H     3.7214558    3.2975166    2.7944525 
O     4.5751421    0.4002418   -2.6250598 
H     4.1704365    0.4002418   -2.3099300 
H     4.9798478    0.4002418   -2.3099300 
O    -5.1900726   -0.9936126   -0.2767992 
H    -5.5947783   -0.9936126    0.0383306 
H    -4.7853670   -0.9936126    0.0383306 
O    -4.5523647   -2.3463770   -1.3278988 
H    -4.9570703   -2.3463770   -1.0127690 
H    -4.1476591   -2.3463770   -1.0127690 
