15
Energy = -448.0510938011
O     0.3227377    0.0000000    0.0000000 
O    -0.3227377    0.0000000    0.0000000 
H     1.7016133   -2.0026381    2.6106211 
O     3.5969510    0.1645607    0.8733926 
H     3.1922454    0.1645607    1.1885224 
H     4.0016566    0.1645607    1.1885224 
O    -2.5181933    1.7315232    2.0970680 
H    -2.9228989    1.7315232    2.4121977 
H    -2.1134877    1.7315232    2.4121977 
O    -1.7878221    2.7198474    1.7722417 
H    -2.1925277    2.7198474    2.0873715 
H    -1.3831164    2.7198474    2.0873715 
O     1.2528470    1.0579644    3.3252815 
H     0.8481414    1.0579644    3.6404112 
H     1.6575526    1.0579644    3.6404112 
