15
Energy = -448.6776092022
O     0.3227377    0.0000000    0.0000000 
O    -0.3227377    0.0000000    0.0000000 
H    -0.3067284    1.0047609   -5.1864448 
O     4.4456134   -2.1955163    1.8528359 
H     4.0409078   -2.1955163    2.1679656 
H     4.8503191   -2.1955163    2.1679656 
O    -3.4465216   -0.8543250   -3.9198122 
H    -3.8512272   -0.8543250   -3.6046825 
H    -3.0418160   -0.8543250   -3.6046825 
O     3.4232464   -2.4182957   -3.2267256 
H     3.0185408   -2.4182957   -2.9115959 
H     3.8279520   -2.4182957   -2.9115959 
O     2.4362963    0.4636682   -4.6708808 
H     2.0315907    0.4636682   -4.3557510 
H     2.8410019    0.4636682   -4.3557510 
