15
Energy = -448.6728359473
O     0.3227377    0.0000000    0.0000000 
O    -0.3227377    0.0000000    0.0000000 
H    -4.6830296    0.8160952    2.3250931 
O    -5.2168905    0.4299159    0.7796908 
H    -5.6215961    0.4299159    1.0948205 
H    -4.8121849    0.4299159    1.0948205 
O    -1.8738253   -1.6207653    4.6797387 
H    -2.2785309   -1.6207653    4.9948684 
H    -1.4691196   -1.6207653    4.9948684 
O     0.7429020   -4.7559639   -2.1943575 
H     0.3381964   -4.7559639   -1.8792278 
H     1.1476076   -4.7559639   -1.8792278 
O     4.3511615   -1.5433199   -2.5824283 
H     3.9464559   -1.5433199   -2.2672986 
H     4.7558672   -1.5433199   -2.2672986 
