15
Energy = -448.6476312470
O     0.3227377    0.0000000    0.0000000 
O    -0.3227377    0.0000000    0.0000000 
H    -3.4438374    3.2887969    2.3079504 
O    -3.5380267    3.8210752    0.9442894 
H    -3.9427323    3.8210752    1.2594192 
H    -3.1333211    3.8210752    1.2594192 
O    -2.8358780    0.3851842   -4.4473326 
H    -3.2405836    0.3851842   -4.1322029 
H    -2.4311724    0.3851842   -4.1322029 
O    -5.0781994   -0.9667525   -1.1276580 
H    -5.4829050   -0.9667525   -0.8125282 
H    -4.6734938   -0.9667525   -0.8125282 
O    -0.3905643    4.4486108   -2.8352773 
H    -0.7952699    4.4486108   -2.5201475 
H     0.0141414    4.4486108   -2.5201475 
