15
Energy = -448.5393023997
O     0.3227377    0.0000000    0.0000000 
O    -0.3227377    0.0000000    0.0000000 
H    -1.9800973    0.5604927   -4.8752332 
O    -4.4764380    2.8192238    0.1314984 
H    -4.8811436    2.8192238    0.4466282 
H    -4.0717324    2.8192238    0.4466282 
O     2.2565033   -3.1419041   -3.6072559 
H     1.8517977   -3.1419041   -3.2921261 
H     2.6612089   -3.1419041   -3.2921261 
O     4.3646173    2.4071581   -1.7734643 
H     3.9599116    2.4071581   -1.4583345 
H     4.7693229    2.4071581   -1.4583345 
O     4.0934128    1.3665444   -3.0588104 
H     3.6887071    1.3665444   -2.7436806 
H     4.4981184    1.3665444   -2.7436806 
