15
Energy = -448.6880497152
O     0.3227377    0.0000000    0.0000000 
O    -0.3227377    0.0000000    0.0000000 
H     3.4494030   -3.5361859   -1.8973255 
O     2.0416125   -3.7184917   -3.1596947 
H     1.6369069   -3.7184917   -2.8445650 
H     2.4463182   -3.7184917   -2.8445650 
O    -3.8523275    3.4811161    1.0256447 
H    -4.2570331    3.4811161    1.3407745 
H    -3.4476219    3.4811161    1.3407745 
O     2.1902533    1.9585116    4.4048847 
H     1.7855477    1.9585116    4.7200144 
H     2.5949589    1.9585116    4.7200144 
O     0.3442478   -3.3304559    4.1016167 
H    -0.0604578   -3.3304559    4.4167465 
H     0.7489535   -3.3304559    4.4167465 
