15
Energy = -448.6504249474
O     0.3227377    0.0000000    0.0000000 
O    -0.3227377    0.0000000    0.0000000 
H     1.4816080   -3.7548545   -3.4218038 
O     2.7851986    4.4193213   -0.8418740 
H     2.3804929    4.4193213   -0.5267442 
H     3.1899042    4.4193213   -0.5267442 
O     0.8703933    3.3218351   -4.0224823 
H     0.4656877    3.3218351   -3.7073526 
H     1.2750989    3.3218351   -3.7073526 
O    -1.2359369    3.5727778   -3.6990122 
H    -1.6406425    3.5727778   -3.3838825 
H    -0.8312313    3.5727778   -3.3838825 
O    -2.8733937   -2.2474352   -3.8297039 
H    -3.2780993   -2.2474352   -3.5145741 
H    -2.4686881   -2.2474352   -3.5145741 
