15
Energy = -448.6678141377
O     0.3227377    0.0000000    0.0000000 
O    -0.3227377    0.0000000    0.0000000 
H     3.0173203   -2.1330768    0.2591359 
O     2.8697438   -0.1281486   -2.3349399 
H     2.4650382   -0.1281486   -2.0198101 
H     3.2744494   -0.1281486   -2.0198101 
O     2.1724923   -2.8339333   -0.9813695 
H     1.7677867   -2.8339333   -0.6662397 
H     2.5771980   -2.8339333   -0.6662397 
O     1.0863626   -2.3670589    2.6378180 
H     0.6816570   -2.3670589    2.9529478 
H     1.4910682   -2.3670589    2.9529478 
O    -0.1220952    1.5329037   -3.3662042 
H    -0.5268008    1.5329037   -3.0510744 
H     0.2826104    1.5329037   -3.0510744 
