15
Energy = -448.6755047515
O     0.3227377    0.0000000    0.0000000 
O    -0.3227377    0.0000000    0.0000000 
H     4.2711997   -1.2237220   -2.8744032 
O    -2.1082689   -0.9695259   -4.7520801 
H    -2.5129745   -0.9695259   -4.4369504 
H    -1.7035633   -0.9695259   -4.4369504 
O     3.0489291    1.1693787   -4.1602986 
H     2.6442235    1.1693787   -3.8451688 
H     3.4536347    1.1693787   -3.8451688 
O     0.4142603    4.4791165   -2.7834814 
H     0.0095547    4.4791165   -2.4683517 
H     0.8189660    4.4791165   -2.4683517 
O    -3.3693323    3.7413601   -1.6249345 
H    -3.7740379    3.7413601   -1.3098048 
H    -2.9646267    3.7413601   -1.3098048 
