15
Energy = -448.6879910761
O     0.3227377    0.0000000    0.0000000 
O    -0.3227377    0.0000000    0.0000000 
H    -2.2110509   -0.9744006    4.7079330 
O     1.1825924    1.6062073   -4.8977057 
H     0.7778868    1.6062073   -4.5825759 
H     1.5872980    1.6062073   -4.5825759 
O     3.6880101   -2.3463690   -2.9788468 
H     3.2833045   -2.3463690   -2.6637170 
H     4.0927157   -2.3463690   -2.6637170 
O    -2.0985079    3.5087434    3.3634996 
H    -2.5032135    3.5087434    3.6786294 
H    -1.6938023    3.5087434    3.6786294 
O    -5.2470376   -0.3121095    0.6153360 
H    -5.6517433   -0.3121095    0.9304657 
H    -4.8423320   -0.3121095    0.9304657 
