15
Energy = -448.6923782771
O     0.3227377    0.0000000    0.0000000 
O    -0.3227377    0.0000000    0.0000000 
H     4.6691936    0.8664499    2.3346803 
O    -4.2114221    3.1805427   -0.3847044 
H    -4.6161277    3.1805427   -0.0695747 
H    -3.8067165    3.1805427   -0.0695747 
O     3.8261001    2.0521399   -3.0215481 
H     3.4213945    2.0521399   -2.7064184 
H     4.2308057    2.0521399   -2.7064184 
O     1.9421834   -2.9661416    3.9322201 
H     1.5374778   -2.9661416    4.2473498 
H     2.3468890   -2.9661416    4.2473498 
O    -5.1932621   -1.0054184   -0.1445545 
H    -5.5979677   -1.0054184    0.1705752 
H    -4.7885565   -1.0054184    0.1705752 
