15
Energy = -448.6636725870
O     0.3227377    0.0000000    0.0000000 
O    -0.3227377    0.0000000    0.0000000 
H    -2.9957422    0.9605250   -1.9555844 
O     2.7035199    2.4713273   -0.5484233 
H     2.2988143    2.4713273   -0.2332935 
H     3.1082255    2.4713273   -0.2332935 
O    -3.0501587   -0.6751192   -1.9867469 
H    -3.4548643   -0.6751192   -1.6716171 
H    -2.6454531   -0.6751192   -1.6716171 
O     2.9706035   -2.1231652   -0.6199935 
H     2.5658979   -2.1231652   -0.3048638 
H     3.3753091   -2.1231652   -0.3048638 
O     3.6861256    0.2601538   -0.2535051 
H     3.2814200    0.2601538    0.0616246 
H     4.0908312    0.2601538    0.0616246 
