15
Energy = -448.6994948634
O     0.3227377    0.0000000    0.0000000 
O    -0.3227377    0.0000000    0.0000000 
H     4.6241635   -2.3888265   -0.9557489 
O     1.3797358   -4.9548326    1.2482721 
H     0.9750302   -4.9548326    1.5634018 
H     1.7844414   -4.9548326    1.5634018 
O    -1.4435883   -2.9722492   -4.1295905 
H    -1.8482939   -2.9722492   -3.8144608 
H    -1.0388827   -2.9722492   -3.8144608 
O    -4.6809629    1.8224413    1.6681351 
H    -5.0856686    1.8224413    1.9832649 
H    -4.2762573    1.8224413    1.9832649 
O    -0.2562528   -3.7730615    3.7052746 
H    -0.6609585   -3.7730615    4.0204043 
H     0.1484528   -3.7730615    4.0204043 
