15
Energy = -448.6868504930
O     0.3227377    0.0000000    0.0000000 
O    -0.3227377    0.0000000    0.0000000 
H    -0.4434248   -3.4210325   -1.3495558 
O     2.5301311   -0.6330282    2.6341830 
H     2.1254255   -0.6330282    2.9493128 
H     2.9348367   -0.6330282    2.9493128 
O     3.2589350    0.3993579   -1.7112415 
H     2.8542294    0.3993579   -1.3961118 
H     3.6636406    0.3993579   -1.3961118 
O    -3.6960376   -0.0336866   -0.2402865 
H    -4.1007432   -0.0336866    0.0748433 
H    -3.2913320   -0.0336866    0.0748433 
O     0.5849339    1.7179732   -3.2254476 
H     0.1802283    1.7179732   -2.9103178 
H     0.9896395    1.7179732   -2.9103178 
