15
Energy = -448.6949097386
O     0.3227377    0.0000000    0.0000000 
O    -0.3227377    0.0000000    0.0000000 
H    -2.8336945   -1.4655403    1.8824868 
O    -1.8550291   -3.1372586    0.6654781 
H    -2.2597348   -3.1372586    0.9806079 
H    -1.4503235   -3.1372586    0.9806079 
O    -1.7905177    2.7832804    1.6677314 
H    -2.1952233    2.7832804    1.9828612 
H    -1.3858121    2.7832804    1.9828612 
O     2.4857060   -0.2094787   -2.7346245 
H     2.0810004   -0.2094787   -2.4194948 
H     2.8904116   -0.2094787   -2.4194948 
O     0.8063546    1.9246946   -3.0567473 
H     0.4016490    1.9246946   -2.7416176 
H     1.2110603    1.9246946   -2.7416176 
