15
Energy = -448.6856729659
O     0.3227377    0.0000000    0.0000000 
O    -0.3227377    0.0000000    0.0000000 
H    -4.0430933    3.1983151   -1.1945766 
O     2.0296600   -3.6098789    3.2980156 
H     1.6249544   -3.6098789    3.6131454 
H     2.4343656   -3.6098789    3.6131454 
O    -1.4274195    1.9650745   -4.6977025 
H    -1.8321251    1.9650745   -4.3825728 
H    -1.0227138    1.9650745   -4.3825728 
O     1.4819772    4.1340969   -2.9484927 
H     1.0772716    4.1340969   -2.6333629 
H     1.8866828    4.1340969   -2.6333629 
O    -4.2327514   -3.0870510   -0.7424044 
H    -4.6374570   -3.0870510   -0.4272746 
H    -3.8280457   -3.0870510   -0.4272746 
