15
Energy = -448.6972578076
O     0.3227377    0.0000000    0.0000000 
O    -0.3227377    0.0000000    0.0000000 
H    -0.1825502    3.6544407   -3.8229014 
O    -4.1292018   -1.2721022    3.0589705 
H    -4.5339075   -1.2721022    3.3741003 
H    -3.7244962   -1.2721022    3.3741003 
O    -4.8835602   -2.0357784    0.1001076 
H    -5.2882658   -2.0357784    0.4152374 
H    -4.4788546   -2.0357784    0.4152374 
O    -3.9303036   -2.8893857   -2.0473328 
H    -4.3350092   -2.8893857   -1.7322031 
H    -3.5255980   -2.8893857   -1.7322031 
O    -3.3124068    3.8382730    1.5198310 
H    -3.7171125    3.8382730    1.8349608 
H    -2.9077012    3.8382730    1.8349608 
