15
Energy = -448.6718540262
O     0.3227377    0.0000000    0.0000000 
O    -0.3227377    0.0000000    0.0000000 
H    -3.0838351    1.5414499    4.0145647 
O     1.2133613   -1.7309810    4.8549803 
H     0.8086556   -1.7309810    5.1701101 
H     1.6180669   -1.7309810    5.1701101 
O    -3.6294097    3.3100321    1.9719894 
H    -4.0341153    3.3100321    2.2871191 
H    -3.2247040    3.3100321    2.2871191 
O    -4.4734002   -0.8116291    2.7116761 
H    -4.8781058   -0.8116291    3.0268058 
H    -4.0686945   -0.8116291    3.0268058 
O    -5.1525614    0.3025389    1.1709908 
H    -5.5572670    0.3025389    1.4861206 
H    -4.7478558    0.3025389    1.4861206 
