15
Energy = -448.6987358920
O     0.3227377    0.0000000    0.0000000 
O    -0.3227377    0.0000000    0.0000000 
H     2.2310585    1.1364317   -4.6619456 
O    -0.6342281    2.1187565   -4.8036737 
H    -1.0389338    2.1187565   -4.4885440 
H    -0.2295225    2.1187565   -4.4885440 
O    -2.1177400    3.5869282    3.2674985 
H    -2.5224456    3.5869282    3.5826282 
H    -1.7130343    3.5869282    3.5826282 
O    -3.6280066   -2.5166961    2.9203798 
H    -4.0327122   -2.5166961    3.2355096 
H    -3.2233009   -2.5166961    3.2355096 
O     1.7526179    3.5297598    3.5353310 
H     1.3479123    3.5297598    3.8504607 
H     2.1573235    3.5297598    3.8504607 
