15
Energy = -448.5856611744
O     0.3227377    0.0000000    0.0000000 
O    -0.3227377    0.0000000    0.0000000 
H     1.3342539   -1.8108207    4.7899406 
O     1.5505728   -2.6651224    4.3044252 
H     1.1458672   -2.6651224    4.6195549 
H     1.9552784   -2.6651224    4.6195549 
O    -5.0815569    0.5962707   -1.3471897 
H    -5.4862625    0.5962707   -1.0320600 
H    -4.6768512    0.5962707   -1.0320600 
O    -3.0092306    1.2590713   -4.1630217 
H    -3.4139362    1.2590713   -3.8478919 
H    -2.6045250    1.2590713   -3.8478919 
O    -4.6690227    2.4759915    0.2730774 
H    -5.0737283    2.4759915    0.5882072 
H    -4.2643170    2.4759915    0.5882072 
