15
Energy = -448.6621684048
O     0.3227377    0.0000000    0.0000000 
O    -0.3227377    0.0000000    0.0000000 
H    -3.3637785    3.9581964   -1.0102036 
O    -4.2734344    2.7703720   -1.4334669 
H    -4.6781400    2.7703720   -1.1183371 
H    -3.8687288    2.7703720   -1.1183371 
O    -2.7394579    2.1376446    3.9948398 
H    -3.1441635    2.1376446    4.3099695 
H    -2.3347522    2.1376446    4.3099695 
O     5.0443712    1.5974550    0.0765194 
H     4.6396655    1.5974550    0.3916491 
H     5.4490768    1.5974550    0.3916491 
O     4.1575017    2.9106964    1.5023847 
H     3.7527960    2.9106964    1.8175144 
H     4.5622073    2.9106964    1.8175144 
