15
Energy = -448.5941096760
O     0.3227377    0.0000000    0.0000000 
O    -0.3227377    0.0000000    0.0000000 
H    -1.5565161    2.3625139   -2.3910616 
O    -2.7756013   -0.0043221   -2.4492762 
H    -3.1803069   -0.0043221   -2.1341465 
H    -2.3708957   -0.0043221   -2.1341465 
O     0.2524438    2.8929063   -2.2959648 
H    -0.1522619    2.8929063   -1.9808351 
H     0.6571494    2.8929063   -1.9808351 
O    -2.5185752   -2.3365282    1.3889737 
H    -2.9232808   -2.3365282    1.7041035 
H    -2.1138695   -2.3365282    1.7041035 
O    -2.3778085    2.2320266   -1.7527872 
H    -2.7825141    2.2320266   -1.4376574 
H    -1.9731029    2.2320266   -1.4376574 
