15
Energy = -448.3507725582
O     0.3227377    0.0000000    0.0000000 
O    -0.3227377    0.0000000    0.0000000 
H    -1.0100709    2.2544113    2.7602131 
O     0.4931419    2.1303136   -2.9862129 
H     0.0884363    2.1303136   -2.6710832 
H     0.8978475    2.1303136   -2.6710832 
O    -0.8660639    1.5278632   -3.2576704 
H    -1.2707695    1.5278632   -2.9425406 
H    -0.4613583    1.5278632   -2.9425406 
O     2.1724993   -2.9407428    0.5984646 
H     1.7677937   -2.9407428    0.9135944 
H     2.5772049   -2.9407428    0.9135944 
O     1.6952141    3.1251456   -1.0359969 
H     1.2905085    3.1251456   -0.7208671 
H     2.0999198    3.1251456   -0.7208671 
