15
Energy = -448.6884877679
O     0.3227377    0.0000000    0.0000000 
O    -0.3227377    0.0000000    0.0000000 
H    -3.1080115   -4.2776999    0.2106762 
O    -1.3381715    2.2754401   -4.5825745 
H    -1.7428771    2.2754401   -4.2674448 
H    -0.9334659    2.2754401   -4.2674448 
O     1.7068150   -4.9111891    0.9885694 
H     1.3021093   -4.9111891    1.3036991 
H     2.1115206   -4.9111891    1.3036991 
O    -2.8847695   -2.4732956   -3.6791352 
H    -3.2894751   -2.4732956   -3.3640054 
H    -2.4800639   -2.4732956   -3.3640054 
O    -3.7012946   -2.0306688    3.1943191 
H    -4.1060002   -2.0306688    3.5094488 
H    -3.2965890   -2.0306688    3.5094488 
