15
Energy = -448.7041607277
O     0.3227377    0.0000000    0.0000000 
O    -0.3227377    0.0000000    0.0000000 
H     2.4405180   -2.7864183   -0.0336793 
O     3.1197680    1.9781084    0.2785816 
H     2.7150624    1.9781084    0.5937113 
H     3.5244736    1.9781084    0.5937113 
O     1.0729368    3.4881910    0.6383665 
H     0.6682312    3.4881910    0.9534963 
H     1.4776424    3.4881910    0.9534963 
O    -3.2962663    0.7687433   -1.5012445 
H    -3.7009719    0.7687433   -1.1861147 
H    -2.8915607    0.7687433   -1.1861147 
O    -2.3562276   -2.8073741    0.5406371 
H    -2.7609332   -2.8073741    0.8557668 
H    -1.9515219   -2.8073741    0.8557668 
