15
Energy = -448.6757303427
O     0.3227377    0.0000000    0.0000000 
O    -0.3227377    0.0000000    0.0000000 
H     4.5682924   -1.4577580    2.2379638 
O     0.3487538   -3.5172449    3.9420630 
H    -0.0559519   -3.5172449    4.2571927 
H     0.7534594   -3.5172449    4.2571927 
O     1.7187015    4.2230063   -2.6823329 
H     1.3139959    4.2230063   -2.3672032 
H     2.1234071    4.2230063   -2.3672032 
O     2.9488349    2.4150292   -3.6670451 
H     2.5441292    2.4150292   -3.3519154 
H     3.3535405    2.4150292   -3.3519154 
O     3.5837634    3.6847813   -1.2539567 
H     3.1790578    3.6847813   -0.9388269 
H     3.9884690    3.6847813   -0.9388269 
