15
Energy = -448.6267078086
O     0.3227377    0.0000000    0.0000000 
O    -0.3227377    0.0000000    0.0000000 
H     4.2431506    1.9598719   -2.4814131 
O     1.0739211    0.2735599   -5.1706625 
H     0.6692155    0.2735599   -4.8555328 
H     1.4786267    0.2735599   -4.8555328 
O     1.4153612    4.2171725    2.8699544 
H     1.0106556    4.2171725    3.1850842 
H     1.8200668    4.2171725    3.1850842 
O     3.0551327    3.2644801    2.8343421 
H     2.6504271    3.2644801    3.1494718 
H     3.4598384    3.2644801    3.1494718 
O    -4.5545309   -2.6509790    0.4848000 
H    -4.9592365   -2.6509790    0.7999298 
H    -4.1498252   -2.6509790    0.7999298 
