15
Energy = -448.1438030874
O     0.3227377    0.0000000    0.0000000 
O    -0.3227377    0.0000000    0.0000000 
H     0.8091760    0.1334276    3.6123152 
O     0.0760843   -3.6703037    0.4982048 
H    -0.3286213   -3.6703037    0.8133346 
H     0.4807899   -3.6703037    0.8133346 
O     0.6136230   -1.2450266   -3.4305863 
H     0.2089173   -1.2450266   -3.1154566 
H     1.0183286   -1.2450266   -3.1154566 
O     2.4715817   -0.9547795    2.5924069 
H     2.0668761   -0.9547795    2.9075367 
H     2.8762873   -0.9547795    2.9075367 
O     1.3032302   -0.6699459    3.4058452 
H     0.8985246   -0.6699459    3.7209750 
H     1.7079358   -0.6699459    3.7209750 
