15
Energy = -448.6741784371
O     0.3227377    0.0000000    0.0000000 
O    -0.3227377    0.0000000    0.0000000 
H    -3.3165475    4.0439892    0.8059158 
O     3.0506712    4.2852296   -0.5733394 
H     2.6459656    4.2852296   -0.2582096 
H     3.4553768    4.2852296   -0.2582096 
O    -2.0275390    4.6546728    1.4957236 
H    -2.4322447    4.6546728    1.8108534 
H    -1.6228334    4.6546728    1.8108534 
O     1.5410798    4.2170461   -2.7970267 
H     1.1363741    4.2170461   -2.4818970 
H     1.9457854    4.2170461   -2.4818970 
O     5.0139755    1.6579853   -0.3338312 
H     4.6092698    1.6579853   -0.0187015 
H     5.4186811    1.6579853   -0.0187015 
