15
Energy = -448.6748074114
O     0.3227377    0.0000000    0.0000000 
O    -0.3227377    0.0000000    0.0000000 
H     3.9305312    1.9244271    2.9749522 
O     3.7648539    1.1076666   -3.5461349 
H     3.3601483    1.1076666   -3.2310052 
H     4.1695595    1.1076666   -3.2310052 
O    -4.9089632   -1.7346083   -0.9428349 
H    -5.3136688   -1.7346083   -0.6277051 
H    -4.5042576   -1.7346083   -0.6277051 
O     2.0401250    3.5119318   -3.3884415 
H     1.6354194    3.5119318   -3.0733117 
H     2.4448306    3.5119318   -3.0733117 
O    -4.4690505    0.9667912   -2.6600183 
H    -4.8737561    0.9667912   -2.3448885 
H    -4.0643449    0.9667912   -2.3448885 
