15
Energy = -448.7155501441
O     0.3227377    0.0000000    0.0000000 
O    -0.3227377    0.0000000    0.0000000 
H    -0.8201921    0.7372099   -3.5362687 
O     3.2527022    0.2541372   -1.7502973 
H     2.8479965    0.2541372   -1.4351675 
H     3.6574078    0.2541372   -1.4351675 
O    -2.8662543   -1.1293262    2.0606063 
H    -3.2709599   -1.1293262    2.3757361 
H    -2.4615487   -1.1293262    2.3757361 
O     1.8281681    1.8536025    2.6387879 
H     1.4234625    1.8536025    2.9539177 
H     2.2328737    1.8536025    2.9539177 
O     3.4272901    0.0347156    1.4087083 
H     3.0225845    0.0347156    1.7238380 
H     3.8319957    0.0347156    1.7238380 
