15
Energy = -448.6908345056
O     0.3227377    0.0000000    0.0000000 
O    -0.3227377    0.0000000    0.0000000 
H     1.6512439   -4.0091056    3.0336944 
O    -2.7937766   -1.1320524   -4.3455005 
H    -3.1984822   -1.1320524   -4.0303708 
H    -2.3890710   -1.1320524   -4.0303708 
O     3.4904182   -3.4301586    2.0171766 
H     3.0857126   -3.4301586    2.3323064 
H     3.8951238   -3.4301586    2.3323064 
O     2.3848100    4.2210351    2.1247029 
H     1.9801043    4.2210351    2.4398327 
H     2.7895156    4.2210351    2.4398327 
O    -4.1735349   -2.7920719    1.6737276 
H    -4.5782406   -2.7920719    1.9888573 
H    -3.7688293   -2.7920719    1.9888573 
