15
Energy = -448.6619014752
O     0.3227377    0.0000000    0.0000000 
O    -0.3227377    0.0000000    0.0000000 
H    -1.6112409    1.7418643   -4.7299733 
O    -2.6771718    2.6780737    3.7001827 
H    -3.0818774    2.6780737    4.0153125 
H    -2.2724662    2.6780737    4.0153125 
O    -3.6053380   -2.8427725   -2.6273985 
H    -4.0100436   -2.8427725   -2.3122688 
H    -3.2006323   -2.8427725   -2.3122688 
O     0.0869336    1.7258144   -4.9979196 
H    -0.3177720    1.7258144   -4.6827898 
H     0.4916392    1.7258144   -4.6827898 
O    -5.2507820    0.5764045   -0.3122768 
H    -5.6554876    0.5764045    0.0028529 
H    -4.8460764    0.5764045    0.0028529 
