15
Energy = -448.6642859469
O     0.3227377    0.0000000    0.0000000 
O    -0.3227377    0.0000000    0.0000000 
H    -4.0149684    0.0628521   -3.4465801 
O     2.4033644    3.4648193    3.2009042 
H     1.9986588    3.4648193    3.5160340 
H     2.8080700    3.4648193    3.5160340 
O     1.0551136    5.1286790    0.7694162 
H     0.6504080    5.1286790    1.0845459 
H     1.4598192    5.1286790    1.0845459 
O    -1.4447614    3.2658713   -3.9013073 
H    -1.8494670    3.2658713   -3.5861775 
H    -1.0400558    3.2658713   -3.5861775 
O     3.9880866    2.2729766    2.6365536 
H     3.5833810    2.2729766    2.9516833 
H     4.3927923    2.2729766    2.9516833 
