15
Energy = -448.6694834664
O     0.3227377    0.0000000    0.0000000 
O    -0.3227377    0.0000000    0.0000000 
H    -1.5913719    0.7666508    3.2559440 
O    -0.1953015    0.5449259   -3.6549652 
H    -0.6000071    0.5449259   -3.3398355 
H     0.2094042    0.5449259   -3.3398355 
O     1.6704396   -3.0826714    1.1988204 
H     1.2657340   -3.0826714    1.5139501 
H     2.0751452   -3.0826714    1.5139501 
O     2.0119645   -2.0067509   -2.3724383 
H     1.6072589   -2.0067509   -2.0573085 
H     2.4166701   -2.0067509   -2.0573085 
O     2.8864443    0.5784256   -2.2446245 
H     2.4817387    0.5784256   -1.9294947 
H     3.2911499    0.5784256   -1.9294947 
