15
Energy = -448.7274623987
O     0.3227377    0.0000000    0.0000000 
O    -0.3227377    0.0000000    0.0000000 
H     0.3702908    2.9237306   -2.2441198 
O    -0.9248891    1.0348454    3.4381588 
H    -1.3295948    1.0348454    3.7532886 
H    -0.5201835    1.0348454    3.7532886 
O    -1.5471798   -2.5065417    2.2498439 
H    -1.9518855   -2.5065417    2.5649737 
H    -1.1424742   -2.5065417    2.5649737 
O     3.0198121    2.0811625   -0.5167038 
H     2.6151065    2.0811625   -0.2015741 
H     3.4245177    2.0811625   -0.2015741 
O     1.8800855   -2.3459051    2.1678803 
H     1.4753798   -2.3459051    2.4830101 
H     2.2847911   -2.3459051    2.4830101 
