15
Energy = -448.6671140738
O     0.3227377    0.0000000    0.0000000 
O    -0.3227377    0.0000000    0.0000000 
H    -4.6909695    0.7284519    2.3381614 
O    -0.5404346   -4.0930826    3.3139671 
H    -0.9451403   -4.0930826    3.6290968 
H    -0.1357290   -4.0930826    3.6290968 
O     2.8404214    0.5635530   -4.4253721 
H     2.4357157    0.5635530   -4.1102423 
H     3.2451270    0.5635530   -4.1102423 
O     1.8698642    0.9123636    4.8693617 
H     1.4651585    0.9123636    5.1844915 
H     2.2745698    0.9123636    5.1844915 
O     2.2426414    2.7493189    3.9299129 
H     1.8379358    2.7493189    4.2450426 
H     2.6473471    2.7493189    4.2450426 
