15
Energy = -448.6911594973
O     0.3227377    0.0000000    0.0000000 
O    -0.3227377    0.0000000    0.0000000 
H     2.1663924   -4.6605392   -1.2605372 
O     4.4559593   -1.9290751   -2.1000253 
H     4.0512537   -1.9290751   -1.7848956 
H     4.8606650   -1.9290751   -1.7848956 
O     4.3857046   -1.8841885    2.2881167 
H     3.9809990   -1.8841885    2.6032465 
H     4.7904102   -1.8841885    2.6032465 
O    -4.7221032    0.1522004    2.3873357 
H    -5.1268089    0.1522004    2.7024655 
H    -4.3173976    0.1522004    2.7024655 
O    -0.0461356   -4.9328275   -1.9114172 
H    -0.4508412   -4.9328275   -1.5962874 
H     0.3585700   -4.9328275   -1.5962874 
