15
Energy = -448.6899226788
O     0.3227377    0.0000000    0.0000000 
O    -0.3227377    0.0000000    0.0000000 
H     2.7210822   -2.6490099    3.6852807 
O     3.7474707    3.4536741    1.4290486 
H     3.3427650    3.4536741    1.7441783 
H     4.1521763    3.4536741    1.7441783 
O     4.6194959   -0.5509837   -2.5180425 
H     4.2147903   -0.5509837   -2.2029128 
H     5.0242016   -0.5509837   -2.2029128 
O     5.0430051   -1.1811927    1.0880705 
H     4.6382995   -1.1811927    1.4032003 
H     5.4477107   -1.1811927    1.4032003 
O     2.9137494    1.8030228   -4.0288537 
H     2.5090438    1.8030228   -3.7137239 
H     3.3184551    1.8030228   -3.7137239 
