15
Energy = -448.7003259197
O     0.3227377    0.0000000    0.0000000 
O    -0.3227377    0.0000000    0.0000000 
H     1.5807869    4.5489362    2.1934284 
O    -3.4893487   -3.0775623    2.5248540 
H    -3.8940543   -3.0775623    2.8399837 
H    -3.0846431   -3.0775623    2.8399837 
O    -1.1791400    4.1949301   -2.9987389 
H    -1.5838456    4.1949301   -2.6836092 
H    -0.7744343    4.1949301   -2.6836092 
O     4.2787977   -0.2428870    3.1079121 
H     3.8740920   -0.2428870    3.4230418 
H     4.6835033   -0.2428870    3.4230418 
O    -1.1753665    4.8987764    1.6234369 
H    -1.5800722    4.8987764    1.9385667 
H    -0.7706609    4.8987764    1.9385667 
