15
Energy = -448.6892626906
O     0.3227377    0.0000000    0.0000000 
O    -0.3227377    0.0000000    0.0000000 
H     0.9730312    0.9573158    5.1126894 
O     0.6087463   -3.8252060   -3.6017956 
H     0.2040407   -3.8252060   -3.2866658 
H     1.0134519   -3.8252060   -3.2866658 
O     4.5690129    2.6079038    0.5745488 
H     4.1643073    2.6079038    0.8896786 
H     4.9737186    2.6079038    0.8896786 
O    -3.3219698    2.7083832    3.1073129 
H    -3.7266754    2.7083832    3.4224427 
H    -2.9172642    2.7083832    3.4224427 
O     2.9632821    2.3117971   -3.7214724 
H     2.5585764    2.3117971   -3.4063426 
H     3.3679877    2.3117971   -3.4063426 
