15
Energy = -448.6950505388
O     0.3227377    0.0000000    0.0000000 
O    -0.3227377    0.0000000    0.0000000 
H    -3.1886286    2.4503719    3.4396455 
O     1.5173248    1.0690127    4.9593445 
H     1.1126192    1.0690127    5.2744742 
H     1.9220305    1.0690127    5.2744742 
O     1.9869992   -3.4636515   -3.4686683 
H     1.5822935   -3.4636515   -3.1535385 
H     2.3917048   -3.4636515   -3.1535385 
O    -2.0115413   -3.5158736    3.4089327 
H    -2.4162469   -3.5158736    3.7240624 
H    -1.6068356   -3.5158736    3.7240624 
O    -3.1547323    0.3912753   -4.2267679 
H    -3.5594379    0.3912753   -3.9116381 
H    -2.7500267    0.3912753   -3.9116381 
