15
Energy = -448.6988804728
O     0.3227377    0.0000000    0.0000000 
O    -0.3227377    0.0000000    0.0000000 
H    -1.5186704    4.8501297    1.4740144 
O    -4.1143069   -1.0154226   -3.1654991 
H    -4.5190125   -1.0154226   -2.8503694 
H    -3.7096013   -1.0154226   -2.8503694 
O    -2.9754672   -0.8545072    4.2955296 
H    -3.3801728   -0.8545072    4.6106594 
H    -2.5707616   -0.8545072    4.6106594 
O     0.7021601    5.1138314   -1.1617981 
H     0.2974544    5.1138314   -0.8466684 
H     1.1068657    5.1138314   -0.8466684 
O     2.1850641    4.1954733    2.3757542 
H     1.7803584    4.1954733    2.6908839 
H     2.5897697    4.1954733    2.6908839 
