15
Energy = -448.7040110288
O     0.3227377    0.0000000    0.0000000 
O    -0.3227377    0.0000000    0.0000000 
H     2.3645246    2.7955833    3.8205463 
O    -1.8210475   -0.3126647    4.9624803 
H    -2.2257531   -0.3126647    5.2776101 
H    -1.4163418   -0.3126647    5.2776101 
O    -2.9521386   -2.4712114    3.6343055 
H    -3.3568442   -2.4712114    3.9494352 
H    -2.5474330   -2.4712114    3.9494352 
O    -4.8154716    1.8865954   -1.1164261 
H    -5.2201772    1.8865954   -0.8012963 
H    -4.4107660    1.8865954   -0.8012963 
O     2.7596792   -2.7266515    3.6027058 
H     2.3549736   -2.7266515    3.9178355 
H     3.1643848   -2.7266515    3.9178355 
