15
Energy = -448.6925961089
O     0.3227377    0.0000000    0.0000000 
O    -0.3227377    0.0000000    0.0000000 
H     2.0752888   -4.8585310   -0.3011456 
O    -2.7177452    4.2754701    1.5325067 
H    -3.1224508    4.2754701    1.8476365 
H    -2.3130395    4.2754701    1.8476365 
O    -2.5025790   -3.6670026    2.8835260 
H    -2.9072846   -3.6670026    3.1986557 
H    -2.0978734   -3.6670026    3.1986557 
O     4.2486572    1.4835263   -2.7802789 
H     3.8439516    1.4835263   -2.4651491 
H     4.6533629    1.4835263   -2.4651491 
O     3.4849345   -3.1146706   -2.4775446 
H     3.0802288   -3.1146706   -2.1624149 
H     3.8896401   -3.1146706   -2.1624149 
