15
Energy = -448.6954377247
O     0.3227377    0.0000000    0.0000000 
O    -0.3227377    0.0000000    0.0000000 
H    -0.7343604    2.4375749    4.6391572 
O     2.1950460   -3.7998635    2.9610684 
H     1.7903403   -3.7998635    3.2761981 
H     2.5997516   -3.7998635    3.2761981 
O     2.7235533    4.1460056   -1.8389865 
H     2.3188476    4.1460056   -1.5238567 
H     3.1282589    4.1460056   -1.5238567 
O     2.2022655    3.6270929    3.1655772 
H     1.7975599    3.6270929    3.4807069 
H     2.6069711    3.6270929    3.4807069 
O    -3.1189392    0.9495525   -4.1643772 
H    -3.5236448    0.9495525   -3.8492474 
H    -2.7142335    0.9495525   -3.8492474 
