15
Energy = -448.6937675952
O     0.3227377    0.0000000    0.0000000 
O    -0.3227377    0.0000000    0.0000000 
H    -3.4331498   -0.1154746   -4.0252930 
O    -0.5327003   -2.3835272   -4.6906859 
H    -0.9374059   -2.3835272   -4.3755562 
H    -0.1279947   -2.3835272   -4.3755562 
O     1.2212758   -3.9357364    3.3235988 
H     0.8165701   -3.9357364    3.6387286 
H     1.6259814   -3.9357364    3.6387286 
O    -0.6679610   -4.9173583   -1.8336935 
H    -1.0726666   -4.9173583   -1.5185638 
H    -0.2632554   -4.9173583   -1.5185638 
O     4.0600478   -2.5070837    2.2914225 
H     3.6553422   -2.5070837    2.6065522 
H     4.4647534   -2.5070837    2.6065522 
