15
Energy = -448.6864347530
O     0.3227377    0.0000000    0.0000000 
O    -0.3227377    0.0000000    0.0000000 
H    -0.8202251   -1.3718564    5.0446087 
O     2.3539713    2.4189581   -4.0718087 
H     1.9492657    2.4189581   -3.7566789 
H     2.7586770    2.4189581   -3.7566789 
O     1.8473292   -3.3933766    3.6197299 
H     1.4426236   -3.3933766    3.9348597 
H     2.2520349   -3.3933766    3.9348597 
O    -3.6023686   -3.7334750   -1.0388003 
H    -4.0070742   -3.7334750   -0.7236705 
H    -3.1976630   -3.7334750   -0.7236705 
O     3.6094545   -1.6722128   -3.4859889 
H     3.2047488   -1.6722128   -3.1708592 
H     4.0141601   -1.6722128   -3.1708592 
