15
Energy = -448.6980456864
O     0.3227377    0.0000000    0.0000000 
O    -0.3227377    0.0000000    0.0000000 
H     0.1687033    0.7999849    5.2282310 
O    -3.7353713    3.7473168    0.0901013 
H    -4.1400769    3.7473168    0.4052311 
H    -3.3306657    3.7473168    0.4052311 
O    -1.8350391    4.4898939    2.1194961 
H    -2.2397447    4.4898939    2.4346258 
H    -1.4303335    4.4898939    2.4346258 
O     3.5730826    3.3560236    1.9970086 
H     3.1683770    3.3560236    2.3121384 
H     3.9777883    3.3560236    2.3121384 
O     3.7882453    2.8894250   -2.2991157 
H     3.3835397    2.8894250   -1.9839860 
H     4.1929509    2.8894250   -1.9839860 
