15
Energy = -448.6931091732
O     0.3227377    0.0000000    0.0000000 
O    -0.3227377    0.0000000    0.0000000 
H     0.2740202    5.0904195   -1.4196401 
O     0.5107226   -5.2665682    0.0762742 
H     0.1060170   -5.2665682    0.3914039 
H     0.9154282   -5.2665682    0.3914039 
O     2.9261042    2.7100703    3.4817336 
H     2.5213986    2.7100703    3.7968634 
H     3.3308098    2.7100703    3.7968634 
O     5.2234294    0.7838974   -0.3189219 
H     4.8187238    0.7838974   -0.0037922 
H     5.6281350    0.7838974   -0.0037922 
O    -2.8064930    2.7635765   -3.5302245 
H    -3.2111986    2.7635765   -3.2150947 
H    -2.4017874    2.7635765   -3.2150947 
