15
Energy = -448.7056312866
O     0.3227377    0.0000000    0.0000000 
O    -0.3227377    0.0000000    0.0000000 
H     2.1754060    3.9932700   -2.7063333 
O     0.1276882   -2.9250912    4.4117541 
H    -0.2770174   -2.9250912    4.7268839 
H     0.5323938   -2.9250912    4.7268839 
O     5.2584883   -0.5150663   -0.2892267 
H     4.8537827   -0.5150663    0.0259031 
H     5.6631939   -0.5150663    0.0259031 
O    -0.4738831    3.3046132    4.1095899 
H    -0.8785888    3.3046132    4.4247196 
H    -0.0691775    3.3046132    4.4247196 
O     3.2111179    3.7800709    1.8483842 
H     2.8064123    3.7800709    2.1635139 
H     3.6158236    3.7800709    2.1635139 
