15
Energy = -448.6915856240
O     0.3227377    0.0000000    0.0000000 
O    -0.3227377    0.0000000    0.0000000 
H     4.7262315    2.1340354   -1.0542605 
O    -4.1051029    3.3373651   -0.1100818 
H    -4.5098085    3.3373651    0.2050479 
H    -3.7003973    3.3373651    0.2050479 
O     0.5989642   -1.2296694   -5.1081815 
H     0.1942586   -1.2296694   -4.7930517 
H     1.0036698   -1.2296694   -4.7930517 
O    -0.0277632    5.2856826    0.2560043 
H    -0.4324689    5.2856826    0.5711340 
H     0.3769424    5.2856826    0.5711340 
O    -3.7211493   -1.1431433    3.5883296 
H    -4.1258549   -1.1431433    3.9034594 
H    -3.3164436   -1.1431433    3.9034594 
