15
Energy = -448.6928282005
O     0.3227377    0.0000000    0.0000000 
O    -0.3227377    0.0000000    0.0000000 
H     3.1732483    0.6510702    4.1844282 
O    -2.6974583    4.2118704   -1.7244434 
H    -3.1021640    4.2118704   -1.4093137 
H    -2.2927527    4.2118704   -1.4093137 
O     4.1227284    3.2853756   -0.4569462 
H     3.7180228    3.2853756   -0.1418165 
H     4.5274340    3.2853756   -0.1418165 
O     4.5976368   -2.4994609    0.7894283 
H     4.1929311   -2.4994609    1.1045581 
H     5.0023424   -2.4994609    1.1045581 
O     0.6342221    5.2287029    0.5149048 
H     0.2295165    5.2287029    0.8300346 
H     1.0389278    5.2287029    0.8300346 
