15
Energy = -448.6740943656
O     0.3227377    0.0000000    0.0000000 
O    -0.3227377    0.0000000    0.0000000 
H    -2.8775429   -4.4357920    0.2152487 
O    -1.3673139   -5.0871726   -0.5001833 
H    -1.7720195   -5.0871726   -0.1850535 
H    -0.9626083   -5.0871726   -0.1850535 
O     2.0923237    4.1115353    2.5961177 
H     1.6876180    4.1115353    2.9112475 
H     2.4970293    4.1115353    2.9112475 
O     2.6725311    4.1177597   -1.9722085 
H     2.2678255    4.1177597   -1.6570787 
H     3.0772367    4.1177597   -1.6570787 
O    -2.9769854    1.8308971   -3.9696735 
H    -3.3816911    1.8308971   -3.6545438 
H    -2.5722798    1.8308971   -3.6545438 
