15
Energy = -448.5715798681
O     0.3227377    0.0000000    0.0000000 
O    -0.3227377    0.0000000    0.0000000 
H     0.6028232    1.0502621   -3.5007061 
O     2.5441864    0.4786482   -2.6456508 
H     2.1394807    0.4786482   -2.3305211 
H     2.9488920    0.4786482   -2.3305211 
O    -3.5964482    0.3185810   -0.8241583 
H    -4.0011538    0.3185810   -0.5090285 
H    -3.1917426    0.3185810   -0.5090285 
O    -2.4553079   -2.3287441   -1.5028223 
H    -2.8600135   -2.3287441   -1.1876926 
H    -2.0506023   -2.3287441   -1.1876926 
O    -2.5115613   -0.8645850   -2.5780842 
H    -2.9162669   -0.8645850   -2.2629544 
H    -2.1068557   -0.8645850   -2.2629544 
