15
Energy = -448.6589534582
O     0.3227377    0.0000000    0.0000000 
O    -0.3227377    0.0000000    0.0000000 
H     3.0379752    3.3966705   -2.6900135 
O     2.8708934    4.0072549   -1.9204796 
H     2.4661878    4.0072549   -1.6053499 
H     3.2755990    4.0072549   -1.6053499 
O     2.1180831   -3.7461897    3.0831512 
H     1.7133775   -3.7461897    3.3982810 
H     2.5227887   -3.7461897    3.3982810 
O    -0.6872413   -1.6464124   -4.9781891 
H    -1.0919469   -1.6464124   -4.6630594 
H    -0.2825356   -1.6464124   -4.6630594 
O    -0.9563143   -4.4859960    2.6427299 
H    -1.3610199   -4.4859960    2.9578597 
H    -0.5516086   -4.4859960    2.9578597 
