15
Energy = -448.6882717460
O     0.3227377    0.0000000    0.0000000 
O    -0.3227377    0.0000000    0.0000000 
H    -1.4650735    2.1655677   -2.6239790 
O     1.3855840    1.7420325   -2.9571255 
H     0.9808784    1.7420325   -2.6419958 
H     1.7902896    1.7420325   -2.6419958 
O    -2.7766330    2.4131072    0.4380595 
H    -3.1813387    2.4131072    0.7531892 
H    -2.3719274    2.4131072    0.7531892 
O    -1.6762806   -1.5092404   -2.9345457 
H    -2.0809862   -1.5092404   -2.6194159 
H    -1.2715750   -1.5092404   -2.6194159 
O     1.0191081    3.5209546    0.5382614 
H     0.6144024    3.5209546    0.8533912 
H     1.4238137    3.5209546    0.8533912 
