15
Energy = -448.6826370287
O     0.3227377    0.0000000    0.0000000 
O    -0.3227377    0.0000000    0.0000000 
H    -3.8658642   -3.4034440    1.2142895 
O     4.0882522    2.6355185   -2.0802395 
H     3.6835465    2.6355185   -1.7651097 
H     4.4929578    2.6355185   -1.7651097 
O    -3.0009913    3.6461267   -2.3842571 
H    -3.4056970    3.6461267   -2.0691274 
H    -2.5962857    3.6461267   -2.0691274 
O     5.1181086    0.6390629    1.1867264 
H     4.7134030    0.6390629    1.5018562 
H     5.5228142    0.6390629    1.5018562 
O    -3.6058141    0.9965095   -3.7389497 
H    -4.0105198    0.9965095   -3.4238200 
H    -3.2011085    0.9965095   -3.4238200 
