15
Energy = -448.6977727731
O     0.3227377    0.0000000    0.0000000 
O    -0.3227377    0.0000000    0.0000000 
H     4.5848929   -0.2478281   -2.6306225 
O     3.3355033    3.3959505   -2.3081122 
H     2.9307977    3.3959505   -1.9929824 
H     3.7402090    3.3959505   -1.9929824 
O     0.2837856   -0.7623380    5.2326403 
H    -0.1209201   -0.7623380    5.5477701 
H     0.6884912   -0.7623380    5.5477701 
O    -3.5401555    3.7255149   -1.2574546 
H    -3.9448612    3.7255149   -0.9423248 
H    -3.1354499    3.7255149   -0.9423248 
O     2.3907432    0.9795165    4.6219600 
H     1.9860376    0.9795165    4.9370898 
H     2.7954489    0.9795165    4.9370898 
