15
Energy = -448.6471082155
O     0.3227377    0.0000000    0.0000000 
O    -0.3227377    0.0000000    0.0000000 
H    -3.2580593   -1.1964402    1.2942065 
O    -1.2663723   -3.2277079   -1.2999197 
H    -1.6710779   -3.2277079   -0.9847899 
H    -0.8616667   -3.2277079   -0.9847899 
O     2.9350968    0.7632219    2.1307551 
H     2.5303911    0.7632219    2.4458848 
H     3.3398024    0.7632219    2.4458848 
O    -2.0686892    1.9121956   -2.4015261 
H    -2.4733948    1.9121956   -2.0863964 
H    -1.6639835    1.9121956   -2.0863964 
O    -1.5740518    0.2090835   -3.3428808 
H    -1.9787574    0.2090835   -3.0277511 
H    -1.1693461    0.2090835   -3.0277511 
