15
Energy = -448.6518434038
O     0.3227377    0.0000000    0.0000000 
O    -0.3227377    0.0000000    0.0000000 
H     1.1421168    3.4112655    0.8833045 
O     1.8440627   -3.1868042    0.4100914 
H     1.4393571   -3.1868042    0.7252211 
H     2.2487683   -3.1868042    0.7252211 
O     1.9109896   -0.4462056   -3.1379562 
H     1.5062840   -0.4462056   -2.8228265 
H     2.3156953   -0.4462056   -2.8228265 
O    -1.2298008    2.1101122   -2.7812681 
H    -1.6345064    2.1101122   -2.4661383 
H    -0.8250952    2.1101122   -2.4661383 
O     0.8307546    2.5993640   -2.5011394 
H     0.4260489    2.5993640   -2.1860097 
H     1.2354602    2.5993640   -2.1860097 
