15
Energy = -448.7107974359
O     0.3227377    0.0000000    0.0000000 
O    -0.3227377    0.0000000    0.0000000 
H    -2.6796600   -1.4017735    2.1391220 
O    -0.1418746   -1.9340581   -3.1522902 
H    -0.5465802   -1.9340581   -2.8371604 
H     0.2628310   -1.9340581   -2.8371604 
O    -0.0132144   -2.0745737    3.0725360 
H    -0.4179201   -2.0745737    3.3876658 
H     0.3914912   -2.0745737    3.3876658 
O    -2.4094401    1.2743074   -2.5046471 
H    -2.8141457    1.2743074   -2.1895174 
H    -2.0047345    1.2743074   -2.1895174 
O     1.9877580    0.3950503    3.1044326 
H     1.5830524    0.3950503    3.4195624 
H     2.3924636    0.3950503    3.4195624 
