15
Energy = -448.6987654626
O     0.3227377    0.0000000    0.0000000 
O    -0.3227377    0.0000000    0.0000000 
H    -4.7398629   -0.4630684   -2.3069685 
O    -1.5038220    5.0494525    0.4981177 
H    -1.9085276    5.0494525    0.8132475 
H    -1.0991163    5.0494525    0.8132475 
O     3.8982603    1.4299769    3.2842475 
H     3.4935547    1.4299769    3.5993772 
H     4.3029659    1.4299769    3.5993772 
O     3.6613826    0.4483040   -3.7904597 
H     3.2566770    0.4483040   -3.4753299 
H     4.0660883    0.4483040   -3.4753299 
O    -1.5759081   -3.6799964    3.4645413 
H    -1.9806138   -3.6799964    3.7796710 
H    -1.1712025   -3.6799964    3.7796710 
