15
Energy = -448.6960698592
O     0.3227377    0.0000000    0.0000000 
O    -0.3227377    0.0000000    0.0000000 
H    -3.6558656    0.4049533    3.8044047 
O    -3.7427364   -3.6034822    1.0085911 
H    -4.1474420   -3.6034822    1.3237209 
H    -3.3380308   -3.6034822    1.3237209 
O     0.3993649    1.0530674   -5.1667667 
H    -0.0053407    1.0530674   -4.8516370 
H     0.8040705    1.0530674   -4.8516370 
O     3.6954901    3.6251274    1.1013256 
H     3.2907845    3.6251274    1.4164553 
H     4.1001957    3.6251274    1.4164553 
O     1.0949035    3.7953688    3.5250139 
H     0.6901979    3.7953688    3.8401437 
H     1.4996091    3.7953688    3.8401437 
