15
Energy = -448.6125006495
O     0.3227377    0.0000000    0.0000000 
O    -0.3227377    0.0000000    0.0000000 
H    -1.2027090   -3.3505895    3.9153387 
O    -1.7101487   -4.9804767    0.5263347 
H    -2.1148544   -4.9804767    0.8414644 
H    -1.3054431   -4.9804767    0.8414644 
O     4.3957401   -0.7981817   -2.8322911 
H     3.9910345   -0.7981817   -2.5171614 
H     4.8004457   -0.7981817   -2.5171614 
O     4.2391487    1.1209633   -2.9586493 
H     3.8344431    1.1209633   -2.6435196 
H     4.6438543    1.1209633   -2.6435196 
O    -3.3219994    3.2256001   -2.5580044 
H    -3.7267050    3.2256001   -2.2428747 
H    -2.9172938    3.2256001   -2.2428747 
