15
Energy = -448.6920485701
O     0.3227377    0.0000000    0.0000000 
O    -0.3227377    0.0000000    0.0000000 
H     3.7039863    2.8553953    2.4758915 
O    -3.0655030   -4.1405864   -1.2049835 
H    -3.4702086   -4.1405864   -0.8898537 
H    -2.6607974   -4.1405864   -0.8898537 
O     4.3714778   -0.2957402    2.9711801 
H     3.9667722   -0.2957402    3.2863098 
H     4.7761834   -0.2957402    3.2863098 
O     0.6665223    5.2492655    0.0653724 
H     0.2618166    5.2492655    0.3805022 
H     1.0712279    5.2492655    0.3805022 
O     3.6618612   -1.5171228   -3.5022228 
H     3.2571556   -1.5171228   -3.1870931 
H     4.0665668   -1.5171228   -3.1870931 
