15
Energy = -448.6965353140
O     0.3227377    0.0000000    0.0000000 
O    -0.3227377    0.0000000    0.0000000 
H    -5.1987074    0.0891557   -0.9840367 
O    -1.0413870   -0.4345774    5.1738217 
H    -1.4460926   -0.4345774    5.4889514 
H    -0.6366814   -0.4345774    5.4889514 
O     1.8156829   -4.5955412   -1.8902082 
H     1.4109772   -4.5955412   -1.5750785 
H     2.2203885   -4.5955412   -1.5750785 
O     2.8666985    3.3936031    2.8792355 
H     2.4619929    3.3936031    3.1943653 
H     3.2714041    3.3936031    3.1943653 
O    -2.3737021   -3.3313717   -3.3533678 
H    -2.7784077   -3.3313717   -3.0382380 
H    -1.9689965   -3.3313717   -3.0382380 
