15
Energy = -448.1698686376
O     0.3227377    0.0000000    0.0000000 
O    -0.3227377    0.0000000    0.0000000 
H    -3.4536303    3.6598997   -1.6371953 
O     2.3036118    1.0592901   -4.6410298 
H     1.8989062    1.0592901   -4.3259000 
H     2.7083174    1.0592901   -4.3259000 
O     0.2992686   -5.1794095    1.0463535 
H    -0.1054370   -5.1794095    1.3614833 
H     0.7039742   -5.1794095    1.3614833 
O     3.6172144    3.0144381    2.4186680 
H     3.2125088    3.0144381    2.7337977 
H     4.0219200    3.0144381    2.7337977 
O     2.5009253    3.4578328    3.1329178 
H     2.0962197    3.4578328    3.4480476 
H     2.9056309    3.4578328    3.4480476 
