15
Energy = -448.6791149027
O     0.3227377    0.0000000    0.0000000 
O    -0.3227377    0.0000000    0.0000000 
H    -3.7755297    3.3360078    1.6184138 
O    -3.3512802    2.5790611   -3.1774619 
H    -3.7559858    2.5790611   -2.8623322 
H    -2.9465746    2.5790611   -2.8623322 
O     1.0864400   -5.1724665    0.2646750 
H     0.6817344   -5.1724665    0.5798047 
H     1.4911457   -5.1724665    0.5798047 
O     2.7535220   -4.3250653   -1.3057251 
H     2.3488164   -4.3250653   -0.9905954 
H     3.1582277   -4.3250653   -0.9905954 
O    -3.8408506   -1.3442821   -3.3790758 
H    -4.2455562   -1.3442821   -3.0639461 
H    -3.4361450   -1.3442821   -3.0639461 
