15
Energy = -448.7117992444
O     0.3227377    0.0000000    0.0000000 
O    -0.3227377    0.0000000    0.0000000 
H     1.3268673    2.1102805   -2.7399870 
O     0.1731832   -1.5407856    3.3678954 
H    -0.2315224   -1.5407856    3.6830252 
H     0.5778888   -1.5407856    3.6830252 
O     3.2167644    1.7100193   -0.6667951 
H     2.8120588    1.7100193   -0.3516653 
H     3.6214701    1.7100193   -0.3516653 
O    -2.7950068    1.9653236   -1.4269101 
H    -3.1997124    1.9653236   -1.1117803 
H    -2.3903012    1.9653236   -1.1117803 
O     2.7865963   -1.4227385    1.9867133 
H     2.3818906   -1.4227385    2.3018430 
H     3.1913019   -1.4227385    2.3018430 
