15
Energy = -448.6775460743
O     0.3227377    0.0000000    0.0000000 
O    -0.3227377    0.0000000    0.0000000 
H     0.7069013    5.0239459    1.5043585 
O     3.5698604   -3.3251721   -2.0461533 
H     3.1651548   -3.3251721   -1.7310235 
H     3.9745661   -3.3251721   -1.7310235 
O     0.5112777    4.0977512   -3.3052938 
H     0.1065720    4.0977512   -2.9901640 
H     0.9159833    4.0977512   -2.9901640 
O    -2.9966950   -3.5528736   -2.5260071 
H    -3.4014006   -3.5528736   -2.2108773 
H    -2.5919894   -3.5528736   -2.2108773 
O    -3.2579479    1.9594886   -3.6771343 
H    -3.6626536    1.9594886   -3.3620046 
H    -2.8532423    1.9594886   -3.3620046 
