15
Energy = -448.7431914131
O     0.3227377    0.0000000    0.0000000 
O    -0.3227377    0.0000000    0.0000000 
H    -0.2090001    5.2636117    0.5035341 
O    -2.5824999    1.9789607    4.1771617 
H    -2.9872055    1.9789607    4.4922915 
H    -2.1777943    1.9789607    4.4922915 
O     1.1918472    3.8353699    3.4493811 
H     0.7871415    3.8353699    3.7645109 
H     1.5965528    3.8353699    3.7645109 
O     0.3690509   -3.6848237    3.7838057 
H    -0.0356547   -3.6848237    4.0989355 
H     0.7737565   -3.6848237    4.0989355 
O     0.2938901    5.1384782   -1.2260757 
H    -0.1108155    5.1384782   -0.9109459 
H     0.6985957    5.1384782   -0.9109459 
