15
Energy = -448.5445622933
O     0.3227377    0.0000000    0.0000000 
O    -0.3227377    0.0000000    0.0000000 
H    -2.3355973    1.9374427   -2.1243094 
O    -1.7415870    0.3434625    3.2549639 
H    -2.1462926    0.3434625    3.5700937 
H    -1.3368814    0.3434625    3.5700937 
O    -2.2384040   -2.6448588   -1.3060674 
H    -2.6431096   -2.6448588   -0.9909377 
H    -1.8336983   -2.6448588   -0.9909377 
O    -1.0166235   -2.4974478   -2.5360428 
H    -1.4213292   -2.4974478   -2.2209130 
H    -0.6119179   -2.4974478   -2.2209130 
O    -3.4383996   -0.9950632   -0.9494653 
H    -3.8431053   -0.9950632   -0.6343355 
H    -3.0336940   -0.9950632   -0.6343355 
