15
Energy = -448.7048823454
O     0.3227377    0.0000000    0.0000000 
O    -0.3227377    0.0000000    0.0000000 
H    -2.7722189    1.1748793   -2.1577420 
O    -3.1336163   -1.9286238    0.4306707 
H    -3.5383219   -1.9286238    0.7458004 
H    -2.7289107   -1.9286238    0.7458004 
O     1.9731437   -2.0250855    2.3969052 
H     1.5684380   -2.0250855    2.7120349 
H     2.3778493   -2.0250855    2.7120349 
O    -0.7937313    0.9575997   -3.4854164 
H    -1.1984369    0.9575997   -3.1702867 
H    -0.3890257    0.9575997   -3.1702867 
O     2.8126979    2.4003250   -0.2165991 
H     2.4079923    2.4003250    0.0985307 
H     3.2174036    2.4003250    0.0985307 
