15
Energy = -448.6923607292
O     0.3227377    0.0000000    0.0000000 
O    -0.3227377    0.0000000    0.0000000 
H    -2.9139650   -0.2400191   -4.4106729 
O     4.3409043    1.5570481   -2.5914209 
H     3.9361987    1.5570481   -2.2762912 
H     4.7456099    1.5570481   -2.2762912 
O     0.6078332   -2.8077393    4.4478588 
H     0.2031276   -2.8077393    4.7629886 
H     1.0125388   -2.8077393    4.7629886 
O     4.2972562   -3.0169285    0.6629817 
H     3.8925506   -3.0169285    0.9781115 
H     4.7019618   -3.0169285    0.9781115 
O    -1.2003816   -3.9317941    3.3358682 
H    -1.6050872   -3.9317941    3.6509980 
H    -0.7956759   -3.9317941    3.6509980 
