15
Energy = -448.6876681685
O     0.3227377    0.0000000    0.0000000 
O    -0.3227377    0.0000000    0.0000000 
H     3.2674625    3.1302567   -2.7437233 
O    -4.5561671    0.7945832   -2.5677750 
H    -4.9608727    0.7945832   -2.2526453 
H    -4.1514615    0.7945832   -2.2526453 
O    -2.2760485   -1.5795631    4.5123585 
H    -2.6807541   -1.5795631    4.8274882 
H    -1.8713429   -1.5795631    4.8274882 
O     1.7113423   -4.7831861   -1.4778815 
H     1.3066367   -4.7831861   -1.1627517 
H     2.1160479   -4.7831861   -1.1627517 
O    -2.9250988    3.1153739   -3.1173056 
H    -3.3298044    3.1153739   -2.8021759 
H    -2.5203932    3.1153739   -2.8021759 
