15
Energy = -448.6831354580
O     0.3227377    0.0000000    0.0000000 
O    -0.3227377    0.0000000    0.0000000 
H     4.0308879   -3.1571517   -1.3368514 
O    -3.9409243    3.1215955    1.6553071 
H    -4.3456299    3.1215955    1.9704369 
H    -3.5362187    3.1215955    1.9704369 
O    -1.3689399   -3.5427846   -3.6810038 
H    -1.7736456   -3.5427846   -3.3658740 
H    -0.9642343   -3.5427846   -3.3658740 
O     2.3028898   -3.2076559   -3.5190864 
H     1.8981841   -3.2076559   -3.2039567 
H     2.7075954   -3.2076559   -3.2039567 
O     5.1702074    0.6441792   -0.9218839 
H     4.7655018    0.6441792   -0.6067541 
H     5.5749130    0.6441792   -0.6067541 
