15
Energy = -448.6900004244
O     0.3227377    0.0000000    0.0000000 
O    -0.3227377    0.0000000    0.0000000 
H    -3.5753942   -2.5737605    2.9317485 
O    -1.0629218   -5.1655911   -0.4317833 
H    -1.4676274   -5.1655911   -0.1166535 
H    -0.6582162   -5.1655911   -0.1166535 
O    -2.7107147   -2.8909548   -3.5029779 
H    -3.1154203   -2.8909548   -3.1878482 
H    -2.3060091   -2.8909548   -3.1878482 
O     5.0499981   -0.9105051    1.2965660 
H     4.6452925   -0.9105051    1.6116958 
H     5.4547037   -0.9105051    1.6116958 
O     3.2880513    3.9331285   -1.3085065 
H     2.8833457    3.9331285   -0.9933767 
H     3.6927569    3.9331285   -0.9933767 
