15
Energy = -448.6484030779
O     0.3227377    0.0000000    0.0000000 
O    -0.3227377    0.0000000    0.0000000 
H     3.3929096    3.1031323    2.6194600 
O    -1.0053334   -1.3545684   -5.0119394 
H    -1.4100390   -1.3545684   -4.6968096 
H    -0.6006278   -1.3545684   -4.6968096 
O    -1.0597456    5.1684512    0.4122836 
H    -1.4644513    5.1684512    0.7274134 
H    -0.6550400    5.1684512    0.7274134 
O    -1.5519923    4.5630278    2.1884689 
H    -1.9566979    4.5630278    2.5035987 
H    -1.1472867    4.5630278    2.5035987 
O     2.6800828    4.4985957   -0.7595368 
H     2.2753771    4.4985957   -0.4444070 
H     3.0847884    4.4985957   -0.4444070 
