15
Energy = -448.6959652178
O     0.3227377    0.0000000    0.0000000 
O    -0.3227377    0.0000000    0.0000000 
H     4.5255759    0.5517719   -2.6865492 
O    -2.9727985   -4.2238361   -1.1471109 
H    -3.3775041   -4.2238361   -0.8319811 
H    -2.5680929   -4.2238361   -0.8319811 
O    -0.9805924   -2.8613035    4.3459088 
H    -1.3852980   -2.8613035    4.6610385 
H    -0.5758868   -2.8613035    4.6610385 
O     4.0419031    2.5804172   -2.2339359 
H     3.6371975    2.5804172   -1.9188061 
H     4.4466087    2.5804172   -1.9188061 
O    -3.4393587    3.8332521   -1.2127167 
H    -3.8440643    3.8332521   -0.8975869 
H    -3.0346531    3.8332521   -0.8975869 
