15
Energy = -448.6860720734
O     0.3227377    0.0000000    0.0000000 
O    -0.3227377    0.0000000    0.0000000 
H    -2.2619591    3.6577751    3.0833518 
O     5.1513933    0.4267986   -1.1292958 
H     4.7466877    0.4267986   -0.8141661 
H     5.5560990    0.4267986   -0.8141661 
O    -4.4191767    0.1721575    2.9096335 
H    -4.8238823    0.1721575    3.2247633 
H    -4.0144711    0.1721575    3.2247633 
O    -3.7657930   -2.4272891    2.8197735 
H    -4.1704986   -2.4272891    3.1349033 
H    -3.3610874   -2.4272891    3.1349033 
O    -4.1144966   -0.8489671   -3.2138447 
H    -4.5192022   -0.8489671   -2.8987150 
H    -3.7097910   -0.8489671   -2.8987150 
