15
Energy = -448.6991729304
O     0.3227377    0.0000000    0.0000000 
O    -0.3227377    0.0000000    0.0000000 
H     3.2817113   -4.1387576   -0.3223237 
O    -1.0459768   -4.6884478   -2.2159710 
H    -1.4506824   -4.6884478   -1.9008412 
H    -0.6412712   -4.6884478   -1.9008412 
O    -2.2429281    4.6877258    1.0024318 
H    -2.6476337    4.6877258    1.3175616 
H    -1.8382225    4.6877258    1.3175616 
O     3.0270052   -3.0969521    3.0449752 
H     2.6222996   -3.0969521    3.3601050 
H     3.4317109   -3.0969521    3.3601050 
O     3.1940993    3.7061406    2.0199706 
H     2.7893937    3.7061406    2.3351004 
H     3.5988050    3.7061406    2.3351004 
