15
Energy = -448.7073120628
O     0.3227377    0.0000000    0.0000000 
O    -0.3227377    0.0000000    0.0000000 
H     3.2449781    4.0351204   -1.0912181 
O     0.7060181    5.1762785   -0.8391563 
H     0.3013125    5.1762785   -0.5240265 
H     1.1107237    5.1762785   -0.5240265 
O     3.2942500    2.6990918    3.1447287 
H     2.8895444    2.6990918    3.4598585 
H     3.6989556    2.6990918    3.4598585 
O    -0.6574090    2.0325450    4.8451909 
H    -1.0621146    2.0325450    5.1603207 
H    -0.2527034    2.0325450    5.1603207 
O    -1.0712026    4.5091493    2.5577679 
H    -1.4759082    4.5091493    2.8728976 
H    -0.6664969    4.5091493    2.8728976 
