15
Energy = -448.6911946368
O     0.3227377    0.0000000    0.0000000 
O    -0.3227377    0.0000000    0.0000000 
H    -2.0738269    2.6219324   -4.1021395 
O    -1.9811470   -4.6218568    1.6518945 
H    -2.3858526   -4.6218568    1.9670243 
H    -1.5764414   -4.6218568    1.9670243 
O    -1.5924041   -3.2519277   -3.8552576 
H    -1.9971097   -3.2519277   -3.5401279 
H    -1.1876984   -3.2519277   -3.5401279 
O     3.0715314   -0.0862104   -4.3044949 
H     2.6668257   -0.0862104   -3.9893652 
H     3.4762370   -0.0862104   -3.9893652 
O     1.9955254   -3.0909811    3.8072563 
H     1.5908198   -3.0909811    4.1223861 
H     2.4002310   -3.0909811    4.1223861 
