15
Energy = -448.6919439358
O     0.3227377    0.0000000    0.0000000 
O    -0.3227377    0.0000000    0.0000000 
H    -2.4516948   -4.1717520   -2.1420817 
O     0.1927420   -5.2769554    0.3493487 
H    -0.2119636   -5.2769554    0.6644785 
H     0.5974476   -5.2769554    0.6644785 
O     2.0394635    3.5709919    3.3341460 
H     1.6347578    3.5709919    3.6492758 
H     2.4441691    3.5709919    3.6492758 
O     2.5022377    2.9299691   -3.6234829 
H     2.0975321    2.9299691   -3.3083531 
H     2.9069434    2.9299691   -3.3083531 
O    -3.1605622   -4.2433191   -0.0852649 
H    -3.5652678   -4.2433191    0.2298649 
H    -2.7558565   -4.2433191    0.2298649 
