15
Energy = -448.6725407920
O     0.3227377    0.0000000    0.0000000 
O    -0.3227377    0.0000000    0.0000000 
H     2.6959991    4.5048656   -0.6637856 
O    -4.9225930   -0.6372872    1.8380978 
H    -5.3272987   -0.6372872    2.1532276 
H    -4.5178874   -0.6372872    2.1532276 
O     3.3013372    3.5896172    2.0577016 
H     2.8966315    3.5896172    2.3728313 
H     3.7060428    3.5896172    2.3728313 
O     1.5381398    5.0608503   -0.1535778 
H     1.1334342    5.0608503    0.1615519 
H     1.9428454    5.0608503    0.1615519 
O    -0.1715729    3.4265356    4.0326915 
H    -0.5762785    3.4265356    4.3478212 
H     0.2331327    3.4265356    4.3478212 
