15
Energy = -448.7008231677
O     0.3227377    0.0000000    0.0000000 
O    -0.3227377    0.0000000    0.0000000 
H    -2.4732914    3.3917436   -3.2220709 
O     0.4161836    1.3283357    5.1091686 
H     0.0114779    1.3283357    5.4242984 
H     0.8208892    1.3283357    5.4242984 
O    -3.1404685   -4.1145482    1.1041220 
H    -3.5451741   -4.1145482    1.4192517 
H    -2.7357629   -4.1145482    1.4192517 
O    -4.0997863   -1.4582217    3.0151059 
H    -4.5044920   -1.4582217    3.3302357 
H    -3.6950807   -1.4582217    3.3302357 
O     4.3698095    0.8397583   -2.8602200 
H     3.9651039    0.8397583   -2.5450902 
H     4.7745151    0.8397583   -2.5450902 
