15
Energy = -448.5577955029
O     0.3227377    0.0000000    0.0000000 
O    -0.3227377    0.0000000    0.0000000 
H     3.1650482   -2.4365336    3.4711108 
O     2.3394076   -3.8715816    2.7498279 
H     1.9347020   -3.8715816    3.0649577 
H     2.7441132   -3.8715816    3.0649577 
O     3.9289211   -2.6264985    2.3845040 
H     3.5242155   -2.6264985    2.6996338 
H     4.3336267   -2.6264985    2.6996338 
O     1.0833578    3.0024818   -4.2169316 
H     0.6786522    3.0024818   -3.9018018 
H     1.4880634    3.0024818   -3.9018018 
O     3.3175690    2.5954454   -3.1993957 
H     2.9128634    2.5954454   -2.8842659 
H     3.7222747    2.5954454   -2.8842659 
