15
Energy = -448.6885106101
O     0.3227377    0.0000000    0.0000000 
O    -0.3227377    0.0000000    0.0000000 
H     2.8737234   -4.4018122    0.6071236 
O     4.7825531    1.5604991   -1.6378399 
H     4.3778474    1.5604991   -1.3227101 
H     5.1872587    1.5604991   -1.3227101 
O     1.9597673    4.3225585   -2.3366707 
H     1.5550617    4.3225585   -2.0215409 
H     2.3644729    4.3225585   -2.0215409 
O     0.9084145   -1.7661361    4.9086990 
H     0.5037089   -1.7661361    5.2238287 
H     1.3131201   -1.7661361    5.2238287 
O     0.8994475   -2.3856176   -4.6333315 
H     0.4947419   -2.3856176   -4.3182017 
H     1.3041531   -2.3856176   -4.3182017 
