15
Energy = -448.6464117659
O     0.3227377    0.0000000    0.0000000 
O    -0.3227377    0.0000000    0.0000000 
H    -3.1136956   -1.2503311   -4.0919931 
O    -3.8715453   -0.6818685   -3.5386963 
H    -4.2762509   -0.6818685   -3.2235666 
H    -3.4668397   -0.6818685   -3.2235666 
O     1.9546979   -1.6813821    4.6249057 
H     1.5499922   -1.6813821    4.9400355 
H     2.3594035   -1.6813821    4.9400355 
O     3.4265986   -2.3881673   -3.2455301 
H     3.0218930   -2.3881673   -2.9304003 
H     3.8313042   -2.3881673   -2.9304003 
O     1.9448013    3.9143946    2.9867326 
H     1.5400957    3.9143946    3.3018623 
H     2.3495069    3.9143946    3.3018623 
