15
Energy = -448.6938924088
O     0.3227377    0.0000000    0.0000000 
O    -0.3227377    0.0000000    0.0000000 
H     1.5825453   -4.1567180    2.8670685 
O    -0.8754001    4.6922325   -2.2808504 
H    -1.2801058    4.6922325   -1.9657207 
H    -0.4706945    4.6922325   -1.9657207 
O    -2.6923042   -4.3952055    1.2023064 
H    -3.0970098   -4.3952055    1.5174362 
H    -2.2875985   -4.3952055    1.5174362 
O    -4.2249499   -1.1319496    2.9822413 
H    -4.6296556   -1.1319496    3.2973710 
H    -3.8202443   -1.1319496    3.2973710 
O     1.4491010   -4.3308526   -2.6695589 
H     1.0443954   -4.3308526   -2.3544291 
H     1.8538067   -4.3308526   -2.3544291 
