15
Energy = -448.6805944708
O     0.3227377    0.0000000    0.0000000 
O    -0.3227377    0.0000000    0.0000000 
H     3.2401858    1.6710601   -3.8355691 
O     1.8391742   -4.6661904   -1.6835238 
H     1.4344686   -4.6661904   -1.3683940 
H     2.2438798   -4.6661904   -1.3683940 
O    -2.5834086   -1.1767005    4.4696588 
H    -2.9881142   -1.1767005    4.7847885 
H    -2.1787030   -1.1767005    4.7847885 
O    -3.6031480    3.2235226   -2.1477613 
H    -4.0078536    3.2235226   -1.8326315 
H    -3.1984424    3.2235226   -1.8326315 
O     2.3184730   -3.2917048   -3.4302126 
H     1.9137674   -3.2917048   -3.1150829 
H     2.7231786   -3.2917048   -3.1150829 
