15
Energy = -448.6928584792
O     0.3227377    0.0000000    0.0000000 
O    -0.3227377    0.0000000    0.0000000 
H     0.4089559   -2.7706862   -4.4898652 
O    -2.4262655    4.6999709   -0.1585492 
H    -2.8309711    4.6999709    0.1565805 
H    -2.0215598    4.6999709    0.1565805 
O     3.6302907   -2.7220564   -2.7191447 
H     3.2255851   -2.7220564   -2.4040149 
H     4.0349963   -2.7220564   -2.4040149 
O    -4.6185559   -2.0094035   -1.6192189 
H    -5.0232615   -2.0094035   -1.3040891 
H    -4.2138503   -2.0094035   -1.3040891 
O    -0.9981996    3.2301200    4.0747298 
H    -1.4029052    3.2301200    4.3898595 
H    -0.5934939    3.2301200    4.3898595 
