15
Energy = -448.6727574069
O     0.3227377    0.0000000    0.0000000 
O    -0.3227377    0.0000000    0.0000000 
H    -1.9147604    3.6553625    3.3128316 
O     2.2373642    4.7905092    0.2229887 
H     1.8326586    4.7905092    0.5381185 
H     2.6420699    4.7905092    0.5381185 
O     0.6103464   -1.4550473   -5.0472899 
H     0.2056408   -1.4550473   -4.7321602 
H     1.0150520   -1.4550473   -4.7321602 
O     1.2898052    3.6218810   -3.6323346 
H     0.8850996    3.6218810   -3.3172049 
H     1.6945109    3.6218810   -3.3172049 
O     2.9942509   -0.7609487   -4.2925426 
H     2.5895453   -0.7609487   -3.9774129 
H     3.3989565   -0.7609487   -3.9774129 
