15
Energy = -448.6947239530
O     0.3227377    0.0000000    0.0000000 
O    -0.3227377    0.0000000    0.0000000 
H    -2.3277422    1.1984502   -2.6204433 
O     2.5334192   -1.1791958    2.4353635 
H     2.1287136   -1.1791958    2.7504933 
H     2.9381248   -1.1791958    2.7504933 
O     2.6569088    1.3368619    2.2117105 
H     2.2522032    1.3368619    2.5268402 
H     3.0616144    1.3368619    2.5268402 
O    -1.0733380   -2.5384359   -2.4712464 
H    -1.4780436   -2.5384359   -2.1561166 
H    -0.6686323   -2.5384359   -2.1561166 
O    -2.2073122    2.7422914   -1.1490584 
H    -2.6120178    2.7422914   -0.8339286 
H    -1.8026066    2.7422914   -0.8339286 
