15
Energy = -448.6922328895
O     0.3227377    0.0000000    0.0000000 
O    -0.3227377    0.0000000    0.0000000 
H     2.3051573   -1.5316180   -4.5103472 
O    -3.5438196    3.9144154    0.3523770 
H    -3.9485252    3.9144154    0.6675068 
H    -3.1391140    3.9144154    0.6675068 
O    -2.7103177   -0.1342714   -4.5392505 
H    -3.1150233   -0.1342714   -4.2241208 
H    -2.3056121   -0.1342714   -4.2241208 
O     1.9228483    2.0952880    4.4664160 
H     1.5181427    2.0952880    4.7815457 
H     2.3275540    2.0952880    4.7815457 
O    -4.5322622   -2.3352734   -1.4132513 
H    -4.9369678   -2.3352734   -1.0981215 
H    -4.1275566   -2.3352734   -1.0981215 
