15
Energy = -448.2369055392
O     0.3227377    0.0000000    0.0000000 
O    -0.3227377    0.0000000    0.0000000 
H    -1.3575029    1.2563593   -3.2093826 
O     2.1672617   -2.9952435    0.2337279 
H     1.7625560   -2.9952435    0.5488577 
H     2.5719673   -2.9952435    0.5488577 
O     2.4765709   -2.3634921    1.4186467 
H     2.0718652   -2.3634921    1.7337764 
H     2.8812765   -2.3634921    1.7337764 
O     3.1385540    0.9795031   -1.7025303 
H     2.7338484    0.9795031   -1.3874006 
H     3.5432597    0.9795031   -1.3874006 
O    -3.3788719   -0.3267381    1.4862814 
H    -3.7835775   -0.3267381    1.8014112 
H    -2.9741663   -0.3267381    1.8014112 
