15
Energy = -448.6310092884
O     0.3227377    0.0000000    0.0000000 
O    -0.3227377    0.0000000    0.0000000 
H     2.0231368   -2.5598605    4.1661574 
O    -3.7437383   -3.5876197   -1.0527603 
H    -4.1484440   -3.5876197   -0.7376305 
H    -3.3390327   -3.5876197   -0.7376305 
O     2.2822026    1.8265119   -4.4073852 
H     1.8774970    1.8265119   -4.0922555 
H     2.6869082    1.8265119   -4.0922555 
O    -2.5401595   -4.6422277    0.0159262 
H    -2.9448651   -4.6422277    0.3310560 
H    -2.1354539   -4.6422277    0.3310560 
O    -1.9884605   -3.6191308   -3.3054277 
H    -2.3931662   -3.6191308   -2.9902980 
H    -1.5837549   -3.6191308   -2.9902980 
