15
Energy = -448.6828497201
O     0.3227377    0.0000000    0.0000000 
O    -0.3227377    0.0000000    0.0000000 
H     3.0857895   -0.9254458   -4.1981293 
O     5.1279937   -0.9309122   -0.9127064 
H     4.7232881   -0.9309122   -0.5975766 
H     5.5326994   -0.9309122   -0.5975766 
O    -3.8852936    3.5841888   -0.2430562 
H    -4.2899992    3.5841888    0.0720736 
H    -3.4805879    3.5841888    0.0720736 
O    -5.0956854    1.4137682    0.1989199 
H    -5.5003910    1.4137682    0.5140496 
H    -4.6909798    1.4137682    0.5140496 
O    -3.4935553   -3.5982055    1.6922031 
H    -3.8982609   -3.5982055    2.0073328 
H    -3.0888497   -3.5982055    2.0073328 
