15
Energy = -448.6986163099
O     0.3227377    0.0000000    0.0000000 
O    -0.3227377    0.0000000    0.0000000 
H     2.3964065   -3.8345126   -2.7489244 
O    -4.0757816    3.3617749   -0.2950831 
H    -4.4804873    3.3617749    0.0200466 
H    -3.6710760    3.3617749    0.0200466 
O     3.0493941   -4.0405554    1.5458226 
H     2.6446885   -4.0405554    1.8609524 
H     3.4540998   -4.0405554    1.8609524 
O    -2.0100904   -1.7023131    4.5933726 
H    -2.4147961   -1.7023131    4.9085023 
H    -1.6053848   -1.7023131    4.9085023 
O     5.1193897   -0.5939947   -1.1970084 
H     4.7146841   -0.5939947   -0.8818787 
H     5.5240953   -0.5939947   -0.8818787 
