15
Energy = -448.6777310192
O     0.3227377    0.0000000    0.0000000 
O    -0.3227377    0.0000000    0.0000000 
H     5.0043563   -0.6203351   -1.6045057 
O    -2.1806387    3.0702948   -3.7138881 
H    -2.5853443    3.0702948   -3.3987584 
H    -1.7759331    3.0702948   -3.3987584 
O     0.5053536   -3.7881579   -3.6564696 
H     0.1006479   -3.7881579   -3.3413398 
H     0.9100592   -3.7881579   -3.3413398 
O    -5.2293993    0.3395459    0.7392419 
H    -5.6341050    0.3395459    1.0543717 
H    -4.8246937    0.3395459    1.0543717 
O     2.0791394    1.8072510   -4.5144054 
H     1.6744338    1.8072510   -4.1992757 
H     2.4838450    1.8072510   -4.1992757 
