15
Energy = -448.5378198654
O     0.3227377    0.0000000    0.0000000 
O    -0.3227377    0.0000000    0.0000000 
H     3.0771562   -3.4619834    2.5590266 
O     4.9325803    1.9160952   -0.0289035 
H     4.5278746    1.9160952    0.2862262 
H     5.3372859    1.9160952    0.2862262 
O    -2.1903381   -4.2236311    2.3202694 
H    -2.5950437   -4.2236311    2.6353992 
H    -1.7856325   -4.2236311    2.6353992 
O     3.4263234   -3.3795844   -2.1965886 
H     3.0216177   -3.3795844   -1.8814589 
H     3.8310290   -3.3795844   -1.8814589 
O    -0.6857237   -4.8850636    1.9191686 
H    -1.0904293   -4.8850636    2.2342983 
H    -0.2810180   -4.8850636    2.2342983 
