15
Energy = -448.7017749035
O     0.3227377    0.0000000    0.0000000 
O    -0.3227377    0.0000000    0.0000000 
H    -2.3711824   -1.8313946   -4.3619175 
O    -3.7264190    3.7572096    0.0001429 
H    -4.1311247    3.7572096    0.3152726 
H    -3.3217134    3.7572096    0.3152726 
O    -3.8974871    2.1496799    2.8658104 
H    -4.3021927    2.1496799    3.1809401 
H    -3.4927815    2.1496799    3.1809401 
O    -5.2088975    0.4398303    0.8264264 
H    -5.6136031    0.4398303    1.1415562 
H    -4.8041918    0.4398303    1.1415562 
O     1.5190068    4.1416692    2.9264397 
H     1.1143012    4.1416692    3.2415695 
H     1.9237124    4.1416692    3.2415695 
