15
Energy = -448.6814305711
O     0.3227377    0.0000000    0.0000000 
O    -0.3227377    0.0000000    0.0000000 
H     0.7542297    4.4557716   -2.7531932 
O    -2.3836084   -2.9282502   -3.7038760 
H    -2.7883140   -2.9282502   -3.3887463 
H    -1.9789027   -2.9282502   -3.3887463 
O     2.6135816   -3.2968250    3.2135889 
H     2.2088759   -3.2968250    3.5287186 
H     3.0182872   -3.2968250    3.5287186 
O     1.2050788   -3.8000986   -3.4761597 
H     0.8003731   -3.8000986   -3.1610299 
H     1.6097844   -3.8000986   -3.1610299 
O     2.5163561    1.8557401   -4.2655466 
H     2.1116504    1.8557401   -3.9504169 
H     2.9210617    1.8557401   -3.9504169 
