15
Energy = -448.6963286882
O     0.3227377    0.0000000    0.0000000 
O    -0.3227377    0.0000000    0.0000000 
H    -1.1147128   -2.5772191    2.4159360 
O    -2.3082602   -2.8962340   -0.0680200 
H    -2.7129658   -2.8962340    0.2471097 
H    -1.9035546   -2.8962340    0.2471097 
O     1.0318633   -3.4014036   -1.0388770 
H     0.6271577   -3.4014036   -0.7237472 
H     1.4365689   -3.4014036   -0.7237472 
O    -3.5839568    0.5097683    0.7891175 
H    -3.9886624    0.5097683    1.1042473 
H    -3.1792512    0.5097683    1.1042473 
O     0.9799305    1.5302952   -3.2241331 
H     0.5752249    1.5302952   -2.9090033 
H     1.3846361    1.5302952   -2.9090033 
