15
Energy = -448.6792991499
O     0.3227377    0.0000000    0.0000000 
O    -0.3227377    0.0000000    0.0000000 
H    -3.9335499   -3.5292909   -0.2722626 
O     1.9527918    4.8914434   -0.5092872 
H     1.5480862    4.8914434   -0.1941575 
H     2.3574974    4.8914434   -0.1941575 
O     2.4893478    2.8546217   -3.6917895 
H     2.0846422    2.8546217   -3.3766597 
H     2.8940534    2.8546217   -3.3766597 
O    -1.9730375    4.1711296   -2.5869182 
H    -2.3777432    4.1711296   -2.2717885 
H    -1.5683319    4.1711296   -2.2717885 
O     3.8779047    3.5949227    0.2067960 
H     3.4731991    3.5949227    0.5219257 
H     4.2826103    3.5949227    0.5219257 
