15
Energy = -448.6928733159
O     0.3227377    0.0000000    0.0000000 
O    -0.3227377    0.0000000    0.0000000 
H     3.5377467   -2.2618376    3.2204463 
O    -3.1585139   -3.2147560    2.7772046 
H    -3.5632195   -3.2147560    3.0923343 
H    -2.7538083   -3.2147560    3.0923343 
O     4.2965412   -2.2945976   -2.0644211 
H     3.8918356   -2.2945976   -1.7492913 
H     4.7012468   -2.2945976   -1.7492913 
O    -3.2547563   -0.7339605   -4.1036313 
H    -3.6594619   -0.7339605   -3.7885015 
H    -2.8500506   -0.7339605   -3.7885015 
O     2.0825342   -4.5122786    1.8217935 
H     1.6778286   -4.5122786    2.1369232 
H     2.4872398   -4.5122786    2.1369232 
