15
Energy = -448.6385993866
O     0.3227377    0.0000000    0.0000000 
O    -0.3227377    0.0000000    0.0000000 
H    -0.6110839   -5.2528957   -0.1910484 
O    -3.8896875   -3.4430290   -1.0055512 
H    -4.2943932   -3.4430290   -0.6904215 
H    -3.4849819   -3.4430290   -0.6904215 
O     3.7396652   -3.5990024   -1.0281861 
H     3.3349596   -3.5990024   -0.7130563 
H     4.1443709   -3.5990024   -0.7130563 
O     0.5390467    4.1684495    3.2187751 
H     0.1343410    4.1684495    3.5339049 
H     0.9437523    4.1684495    3.5339049 
O     2.1999127   -4.4354159   -1.8644717 
H     1.7952071   -4.4354159   -1.5493420 
H     2.6046183   -4.4354159   -1.5493420 
