15
Energy = -448.5670258064
O     0.3227377    0.0000000    0.0000000 
O    -0.3227377    0.0000000    0.0000000 
H    -1.0840057    2.3980599   -2.6068429 
O    -1.1455738    0.8133857   -3.4236915 
H    -1.5502794    0.8133857   -3.1085617 
H    -0.7408682    0.8133857   -3.1085617 
O    -1.8926028   -3.1671694    0.3331315 
H    -2.2973084   -3.1671694    0.6482613 
H    -1.4878972   -3.1671694    0.6482613 
O    -2.3469440   -0.2941161   -2.8469792 
H    -2.7516496   -0.2941161   -2.5318494 
H    -1.9422384   -0.2941161   -2.5318494 
O     0.0570065   -3.4748474   -1.2782556 
H    -0.3476992   -3.4748474   -0.9631258 
H     0.4617121   -3.4748474   -0.9631258 
