15
Energy = -448.6907894225
O     0.3227377    0.0000000    0.0000000 
O    -0.3227377    0.0000000    0.0000000 
H    -2.4426936    4.4932533   -1.3589550 
O     3.4380745    1.9960884   -3.4888150 
H     3.0333689    1.9960884   -3.1736852 
H     3.8427801    1.9960884   -3.1736852 
O    -3.1963401   -2.5694525    3.3480372 
H    -3.6010457   -2.5694525    3.6631669 
H    -2.7916345   -2.5694525    3.6631669 
O    -4.3564635    2.9948364   -0.2307923 
H    -4.7611691    2.9948364    0.0843375 
H    -3.9517579    2.9948364    0.0843375 
O     1.7030763   -4.7748331   -1.5139100 
H     1.2983707   -4.7748331   -1.1987803 
H     2.1077819   -4.7748331   -1.1987803 
