15
Energy = -448.6728402476
O     0.3227377    0.0000000    0.0000000 
O    -0.3227377    0.0000000    0.0000000 
H    -1.3280052   -0.8448975   -5.0522655 
O    -4.1887005   -2.0625953    2.4944119 
H    -4.5934061   -2.0625953    2.8095417 
H    -3.7839949   -2.0625953    2.8095417 
O     3.8818157    1.5201483   -3.2556054 
H     3.4771101    1.5201483   -2.9404756 
H     4.2865213    1.5201483   -2.9404756 
O    -2.6779639    3.0417245   -3.3990663 
H    -3.0826695    3.0417245   -3.0839365 
H    -2.2732583    3.0417245   -3.0839365 
O     0.7694435   -0.7693160   -5.1749367 
H     0.3647379   -0.7693160   -4.8598069 
H     1.1741491   -0.7693160   -4.8598069 
