15
Energy = -448.6798567353
O     0.3227377    0.0000000    0.0000000 
O    -0.3227377    0.0000000    0.0000000 
H     2.0773234   -4.3296076    2.2230749 
O    -2.8102824   -4.1920117   -1.5875201 
H    -3.2149880   -4.1920117   -1.2723903 
H    -2.4055768   -4.1920117   -1.2723903 
O     3.2835948   -4.1180847    0.5158386 
H     2.8788891   -4.1180847    0.8309683 
H     3.6883004   -4.1180847    0.8309683 
O    -2.6232894   -1.5933241   -4.3069788 
H    -3.0279950   -1.5933241   -3.9918490 
H    -2.2185838   -1.5933241   -3.9918490 
O     1.9107222    4.5255490   -1.9638186 
H     1.5060165    4.5255490   -1.6486889 
H     2.3154278    4.5255490   -1.6486889 
