15
Energy = -448.6974050880
O     0.3227377    0.0000000    0.0000000 
O    -0.3227377    0.0000000    0.0000000 
H    -0.9148092   -4.1973245    3.0900530 
O    -2.8776656    2.8698568   -3.3853061 
H    -3.2823712    2.8698568   -3.0701763 
H    -2.4729600    2.8698568   -3.0701763 
O     0.7274429    2.4212845    4.6525325 
H     0.3227373    2.4212845    4.9676622 
H     1.1321485    2.4212845    4.9676622 
O     3.3857485   -3.8626488    1.2763555 
H     2.9810429   -3.8626488    1.5914852 
H     3.7904541   -3.8626488    1.5914852 
O    -1.9110436   -3.0222322    3.9046440 
H    -2.3157492   -3.0222322    4.2197738 
H    -1.5063379   -3.0222322    4.2197738 
