15
Energy = -448.6924062345
O     0.3227377    0.0000000    0.0000000 
O    -0.3227377    0.0000000    0.0000000 
H     3.5455632    2.5716052    2.9696237 
O    -0.4168871    2.6462469    4.5673616 
H    -0.8215927    2.6462469    4.8824914 
H    -0.0121815    2.6462469    4.8824914 
O     2.8020734   -1.9813227   -4.0243345 
H     2.3973678   -1.9813227   -3.7092047 
H     3.2067790   -1.9813227   -3.7092047 
O    -2.9222811    3.2342700   -2.9966700 
H    -3.3269867    3.2342700   -2.6815403 
H    -2.5175754    3.2342700   -2.6815403 
O    -0.0544362    5.2821907   -0.3098191 
H    -0.4591418    5.2821907    0.0053106 
H     0.3502694    5.2821907    0.0053106 
