15
Energy = -448.6896988948
O     0.3227377    0.0000000    0.0000000 
O    -0.3227377    0.0000000    0.0000000 
H    -0.2595580   -3.8684077    3.6015119 
O     2.6131783   -3.9778379    2.3169745 
H     2.2084727   -3.9778379    2.6321043 
H     3.0178839   -3.9778379    2.6321043 
O     3.7824981    1.2765615    3.4773699 
H     3.3777925    1.2765615    3.7924996 
H     4.1872038    1.2765615    3.7924996 
O    -0.1633925   -0.6221357   -5.2487669 
H    -0.5680982   -0.6221357   -4.9336372 
H     0.2413131   -0.6221357   -4.9336372 
O    -0.1792800   -4.0575663   -3.3884105 
H    -0.5839856   -4.0575663   -3.0732807 
H     0.2254256   -4.0575663   -3.0732807 
