15
Energy = -448.6964262102
O     0.3227377    0.0000000    0.0000000 
O    -0.3227377    0.0000000    0.0000000 
H    -3.2528607   -4.0891592   -0.8369646 
O    -0.7431113   -3.6084271    3.8024321 
H    -1.1478170   -3.6084271    4.1175618 
H    -0.3384057   -3.6084271    4.1175618 
O     1.0644682    1.1675957   -5.0466280 
H     0.6597626    1.1675957   -4.7314982 
H     1.4691738    1.1675957   -4.7314982 
O    -4.0890135    3.0309044    1.4516677 
H    -4.4937191    3.0309044    1.7667974 
H    -3.6843078    3.0309044    1.7667974 
O    -1.4610685    4.3656851    2.6131530 
H    -1.8657742    4.3656851    2.9282828 
H    -1.0563629    4.3656851    2.9282828 
