15
Energy = -448.6932595041
O     0.3227377    0.0000000    0.0000000 
O    -0.3227377    0.0000000    0.0000000 
H    -1.1458561   -0.8931185   -5.0884368 
O    -1.8253139    3.1656375    3.8312707 
H    -2.2300196    3.1656375    4.1464005 
H    -1.4206083    3.1656375    4.1464005 
O    -0.8447099    0.4696295    5.2065281 
H    -1.2494155    0.4696295    5.5216578 
H    -0.4400043    0.4696295    5.5216578 
O    -0.7768464   -3.8393914   -3.5541028 
H    -1.1815520   -3.8393914   -3.2389731 
H    -0.3721407   -3.8393914   -3.2389731 
O     2.7412452   -3.4719323   -2.9003872 
H     2.3365396   -3.4719323   -2.5852575 
H     3.1459508   -3.4719323   -2.5852575 
