15
Energy = -448.6937137210
O     0.3227377    0.0000000    0.0000000 
O    -0.3227377    0.0000000    0.0000000 
H     4.7933484   -1.3981622   -1.7526521 
O     2.8973321   -4.1553383    1.5339496 
H     2.4926265   -4.1553383    1.8490793 
H     3.3020377   -4.1553383    1.8490793 
O    -4.7276234   -0.5193000   -2.3163089 
H    -5.1323291   -0.5193000   -2.0011791 
H    -4.3229178   -0.5193000   -2.0011791 
O     2.0432391    4.4432174   -2.0175790 
H     1.6385335    4.4432174   -1.7024493 
H     2.4479447    4.4432174   -1.7024493 
O    -4.3368494   -1.2004829    2.7882598 
H    -4.7415550   -1.2004829    3.1033895 
H    -3.9321438   -1.2004829    3.1033895 
