15
Energy = -448.6857211692
O     0.3227377    0.0000000    0.0000000 
O    -0.3227377    0.0000000    0.0000000 
H     3.3563906   -3.3325479    2.3730998 
O    -0.0409650   -5.2533374    0.6390629 
H    -0.4456706   -5.2533374    0.9541926 
H     0.3637406   -5.2533374    0.9541926 
O    -2.8996471    3.3467894   -2.8934556 
H    -3.3043527    3.3467894   -2.5783258 
H    -2.4949415    3.3467894   -2.5783258 
O     3.5761029   -1.9706807   -3.3623522 
H     3.1713973   -1.9706807   -3.0472224 
H     3.9808086   -1.9706807   -3.0472224 
O    -2.8216137   -4.4343947   -0.6106257 
H    -3.2263194   -4.4343947   -0.2954959 
H    -2.4169081   -4.4343947   -0.2954959 
