15
Energy = -448.7040211410
O     0.3227377    0.0000000    0.0000000 
O    -0.3227377    0.0000000    0.0000000 
H     2.3273937    3.7787769   -2.8821728 
O     1.0794382   -2.5164156    4.5320425 
H     0.6747325   -2.5164156    4.8471722 
H     1.4841438   -2.5164156    4.8471722 
O    -0.6024316   -5.1770636    0.9191469 
H    -1.0071372   -5.1770636    1.2342766 
H    -0.1977259   -5.1770636    1.2342766 
O    -1.5272281    4.8753032    1.3828326 
H    -1.9319337    4.8753032    1.6979623 
H    -1.1225225    4.8753032    1.6979623 
O    -3.3260876   -3.8343051    1.4997863 
H    -3.7307932   -3.8343051    1.8149161 
H    -2.9213820   -3.8343051    1.8149161 
