15
Energy = -448.6991047045
O     0.3227377    0.0000000    0.0000000 
O    -0.3227377    0.0000000    0.0000000 
H     2.1147898    3.1718075   -3.6701686 
O    -4.8339380    2.1410897   -0.2234230 
H    -5.2386436    2.1410897    0.0917068 
H    -4.4292324    2.1410897    0.0917068 
O    -3.6467761    2.2279277    3.1246935 
H    -4.0514818    2.2279277    3.4398232 
H    -3.2420705    2.2279277    3.4398232 
O    -3.0349231   -3.9517721   -1.7782498 
H    -3.4396288   -3.9517721   -1.4631201 
H    -2.6302175   -3.9517721   -1.4631201 
O     2.8187017    3.9107726    2.1863350 
H     2.4139961    3.9107726    2.5014647 
H     3.2234073    3.9107726    2.5014647 
