15
Energy = -448.6904748356
O     0.3227377    0.0000000    0.0000000 
O    -0.3227377    0.0000000    0.0000000 
H    -1.3936632    0.5772515   -5.0722105 
O     0.2411378    4.1991784   -3.2074019 
H    -0.1635678    4.1991784   -2.8922722 
H     0.6458434    4.1991784   -2.8922722 
O     3.6064988   -3.1346777    2.2774834 
H     3.2017932   -3.1346777    2.5926132 
H     4.0112044   -3.1346777    2.5926132 
O     3.8069616    1.5442072   -3.3316971 
H     3.4022560    1.5442072   -3.0165673 
H     4.2116672    1.5442072   -3.0165673 
O    -2.7188579    4.0399833    2.0747986 
H    -3.1235635    4.0399833    2.3899283 
H    -2.3141523    4.0399833    2.3899283 
