15
Energy = -448.4493929099
O     0.3227377    0.0000000    0.0000000 
O    -0.3227377    0.0000000    0.0000000 
H     2.0647198   -4.8698708   -0.1553258 
O     3.6728374    3.2928658   -1.9119956 
H     3.2681318    3.2928658   -1.5968659 
H     4.0775430    3.2928658   -1.5968659 
O     4.1686397   -3.0624228   -1.1128579 
H     3.7639341   -3.0624228   -0.7977282 
H     4.5733453   -3.0624228   -0.7977282 
O    -0.6299092    3.2644476    4.1207333 
H    -1.0346148    3.2644476    4.4358630 
H    -0.2252036    3.2644476    4.4358630 
O     1.7880104   -4.8584965   -1.0920764 
H     1.3833048   -4.8584965   -0.7769466 
H     2.1927160   -4.8584965   -0.7769466 
