15
Energy = -448.7040546586
O     0.3227377    0.0000000    0.0000000 
O    -0.3227377    0.0000000    0.0000000 
H     1.0991181   -2.0097191    2.9110751 
O    -0.9608212   -2.3896997    2.6660093 
H    -1.3655268   -2.3896997    2.9811391 
H    -0.5561156   -2.3896997    2.9811391 
O     0.1515242   -3.6916037   -0.2617392 
H    -0.2531814   -3.6916037    0.0533905 
H     0.5562299   -3.6916037    0.0533905 
O     2.3251292   -2.1614330   -1.9049973 
H     1.9204236   -2.1614330   -1.5898675 
H     2.7298348   -2.1614330   -1.5898675 
O    -2.1357305   -2.0602969   -2.2132654 
H    -2.5404361   -2.0602969   -1.8981356 
H    -1.7310249   -2.0602969   -1.8981356 
