15
Energy = -448.6987293180
O     0.3227377    0.0000000    0.0000000 
O    -0.3227377    0.0000000    0.0000000 
H    -3.8415562    1.7102315    3.2125365 
O    -2.8110838    2.4032259   -3.7810934 
H    -3.2157894    2.4032259   -3.4659637 
H    -2.4063781    2.4032259   -3.4659637 
O    -3.3136201   -3.1058318    2.7197481 
H    -3.7183257   -3.1058318    3.0348778 
H    -2.9089144   -3.1058318    3.0348778 
O     1.4942552    2.7008566    4.3020677 
H     1.0895496    2.7008566    4.6171975 
H     1.8989608    2.7008566    4.6171975 
O     5.0128070    0.6696850    1.5613665 
H     4.6081014    0.6696850    1.8764962 
H     5.4175126    0.6696850    1.8764962 
