15
Energy = -448.6944515065
O     0.3227377    0.0000000    0.0000000 
O    -0.3227377    0.0000000    0.0000000 
H     0.5983063   -3.6321094    3.8016637 
O     2.4367486   -4.6970812   -0.0464385 
H     2.0320430   -4.6970812    0.2686912 
H     2.8414542   -4.6970812    0.2686912 
O     4.9156225    1.8219144    0.7249571 
H     4.5109169    1.8219144    1.0400868 
H     5.3203282    1.8219144    1.0400868 
O    -3.8409280   -1.5989957   -3.2662998 
H    -4.2456337   -1.5989957   -2.9511701 
H    -3.4362224   -1.5989957   -2.9511701 
O     3.4052225   -2.8913072    2.8406005 
H     3.0005169   -2.8913072    3.1557302 
H     3.8099281   -2.8913072    3.1557302 
