15
Energy = -448.6275036150
O     0.3227377    0.0000000    0.0000000 
O    -0.3227377    0.0000000    0.0000000 
H    -2.2698580   -1.4623894    2.5358532 
O     1.6101305   -3.1964627   -0.9509584 
H     1.2054249   -3.1964627   -0.6358286 
H     2.0148361   -3.1964627   -0.6358286 
O    -2.1345776    2.5537415    1.6296097 
H    -2.5392832    2.5537415    1.9447395 
H    -1.7298720    2.5537415    1.9447395 
O     1.6668201   -3.2044407    0.8251413 
H     1.2621145   -3.2044407    1.1402711 
H     2.0715257   -3.2044407    1.1402711 
O    -1.5986845    1.4151268   -3.0232826 
H    -2.0033901    1.4151268   -2.7081528 
H    -1.1939788    1.4151268   -2.7081528 
