15
Energy = -448.6388260834
O     0.3227377    0.0000000    0.0000000 
O    -0.3227377    0.0000000    0.0000000 
H     1.5970241   -2.8133462    1.8044354 
O    -2.5476798    0.7262231   -2.5853121 
H    -2.9523854    0.7262231   -2.2701823 
H    -2.1429742    0.7262231   -2.2701823 
O    -2.9243329   -2.2568493    0.2799848 
H    -3.3290386   -2.2568493    0.5951146 
H    -2.5196273   -2.2568493    0.5951146 
O    -0.4618272    0.5856421   -3.6246138 
H    -0.8665328    0.5856421   -3.3094840 
H    -0.0571216    0.5856421   -3.3094840 
O     2.6233287   -1.9044134    1.7961778 
H     2.2186231   -1.9044134    2.1113075 
H     3.0280344   -1.9044134    2.1113075 
