15
Energy = -448.6090841548
O     0.3227377    0.0000000    0.0000000 
O    -0.3227377    0.0000000    0.0000000 
H    -1.4314490   -2.0395651    2.7408972 
O    -0.3135570   -2.3542469    2.8464029 
H    -0.7182626   -2.3542469    3.1615326 
H     0.0911486   -2.3542469    3.1615326 
O    -2.8134694   -2.3941751   -0.2677223 
H    -3.2181750   -2.3941751    0.0474074 
H    -2.4087638   -2.3941751    0.0474074 
O     3.0857166    1.0146810    1.7842602 
H     2.6810110    1.0146810    2.0993899 
H     3.4904222    1.0146810    2.0993899 
O    -0.2200451   -3.6970971    0.0704201 
H    -0.6247507   -3.6970971    0.3855498 
H     0.1846605   -3.6970971    0.3855498 
