15
Energy = -448.6893896528
O     0.3227377    0.0000000    0.0000000 
O    -0.3227377    0.0000000    0.0000000 
H     3.4699262   -2.2538374    3.2988884 
O    -2.4081590    3.6229514   -3.0091792 
H    -2.8128646    3.6229514   -2.6940494 
H    -2.0034534    3.6229514   -2.6940494 
O     0.6076633   -0.0124347    5.2605151 
H     0.2029577   -0.0124347    5.5756448 
H     1.0123689   -0.0124347    5.5756448 
O     0.4305414    1.3587792   -5.0924292 
H     0.0258358    1.3587792   -4.7772994 
H     0.8352470    1.3587792   -4.7772994 
O     5.2305844   -0.6200079   -0.5055617 
H     4.8258788   -0.6200079   -0.1904319 
H     5.6352900   -0.6200079   -0.1904319 
