15
Energy = -448.6950836213
O     0.3227377    0.0000000    0.0000000 
O    -0.3227377    0.0000000    0.0000000 
H     3.5570546    1.3105315    3.6922495 
O    -1.6796361   -1.4570497    4.8057083 
H    -2.0843418   -1.4570497    5.1208381 
H    -1.2749305   -1.4570497    5.1208381 
O     1.1241501    0.0214573   -5.1671796 
H     0.7194445    0.0214573   -4.8520498 
H     1.5288557    0.0214573   -4.8520498 
O    -2.1126693    3.7841699    3.0401312 
H    -2.5173749    3.7841699    3.3552609 
H    -1.7079637    3.7841699    3.3552609 
O    -3.6668809   -3.2270113   -2.0317254 
H    -4.0715865   -3.2270113   -1.7165957 
H    -3.2621753   -3.2270113   -1.7165957 
