15
Energy = -448.6332261906
O     0.3227377    0.0000000    0.0000000 
O    -0.3227377    0.0000000    0.0000000 
H    -2.3777283    4.6916995   -0.5806893 
O     1.7872125   -2.7181423    4.1775409 
H     1.3825069   -2.7181423    4.4926707 
H     2.1919182   -2.7181423    4.4926707 
O     1.6302511   -5.0342678   -0.0318014 
H     1.2255455   -5.0342678    0.2833284 
H     2.0349567   -5.0342678    0.2833284 
O     4.7363321    1.2850736    1.9833049 
H     4.3316265    1.2850736    2.2984346 
H     5.1410377    1.2850736    2.2984346 
O    -1.8792996    4.9437400    0.1784185 
H    -2.2840052    4.9437400    0.4935483 
H    -1.4745940    4.9437400    0.4935483 
