15
Energy = -448.3569432546
O     0.3227377    0.0000000    0.0000000 
O    -0.3227377    0.0000000    0.0000000 
H    -2.9084151   -1.9865426   -1.1472402 
O    -2.7186445   -2.5013600    0.2749837 
H    -3.1233501   -2.5013600    0.5901135 
H    -2.3139389   -2.5013600    0.5901135 
O    -1.1814274    2.6245031    2.3356312 
H    -1.5861330    2.6245031    2.6507610 
H    -0.7767218    2.6245031    2.6507610 
O     1.5673858    1.1081895   -3.1642960 
H     1.1626802    1.1081895   -2.8491663 
H     1.9720915    1.1081895   -2.8491663 
O    -2.9544479   -1.6926914    1.4623334 
H    -3.3591535   -1.6926914    1.7774631 
H    -2.5497422   -1.6926914    1.7774631 
