15
Energy = -448.4780137257
O     0.3227377    0.0000000    0.0000000 
O    -0.3227377    0.0000000    0.0000000 
H     3.2183092   -1.4632612   -1.1057768 
O    -2.6330758    1.9143964   -1.7635464 
H    -3.0377814    1.9143964   -1.4484167 
H    -2.2283702    1.9143964   -1.4484167 
O     3.1046276    0.4496353    1.9736643 
H     2.6999220    0.4496353    2.2887940 
H     3.5093332    0.4496353    2.2887940 
O    -1.0535385    0.5984386   -3.4967094 
H    -1.4582441    0.5984386   -3.1815797 
H    -0.6488329    0.5984386   -3.1815797 
O    -2.4421220    0.0291927   -2.7812988 
H    -2.8468277    0.0291927   -2.4661691 
H    -2.0374164    0.0291927   -2.4661691 
