15
Energy = -448.6916987817
O     0.3227377    0.0000000    0.0000000 
O    -0.3227377    0.0000000    0.0000000 
H     3.1270194    0.1065877    4.2676955 
O    -3.6110599   -2.6206312   -2.8414728 
H    -4.0157655   -2.6206312   -2.5263430 
H    -3.2063543   -2.6206312   -2.5263430 
O    -2.4925429   -3.3893467    3.2134989 
H    -2.8972485   -3.3893467    3.5286286 
H    -2.0878372   -3.3893467    3.5286286 
O    -0.4590678   -3.5801736   -3.8659190 
H    -0.8637734   -3.5801736   -3.5507892 
H    -0.0543622   -3.5801736   -3.5507892 
O     2.6551581    4.3286274    1.4923732 
H     2.2504525    4.3286274    1.8075030 
H     3.0598638    4.3286274    1.8075030 
