15
Energy = -448.6771584690
O     0.3227377    0.0000000    0.0000000 
O    -0.3227377    0.0000000    0.0000000 
H    -1.6964821    3.5106169    3.5777582 
O     2.9291461   -3.1837290   -3.0436622 
H     2.5244405   -3.1837290   -2.7285324 
H     3.3338517   -3.1837290   -2.7285324 
O    -5.2598266   -0.5633869    0.1439624 
H    -5.6645322   -0.5633869    0.4590922 
H    -4.8551210   -0.5633869    0.4590922 
O     2.3456359    0.6277524   -4.6980177 
H     1.9409302    0.6277524   -4.3828879 
H     2.7503415    0.6277524   -4.3828879 
O     4.0257903   -3.2926050   -0.9732722 
H     3.6210847   -3.2926050   -0.6581425 
H     4.4304959   -3.2926050   -0.6581425 
