15
Energy = -448.7007347811
O     0.3227377    0.0000000    0.0000000 
O    -0.3227377    0.0000000    0.0000000 
H    -3.7040020    0.6892120    3.7159376 
O    -1.1048921    5.1514161    0.4987005 
H    -1.5095977    5.1514161    0.8138303 
H    -0.7001864    5.1514161    0.8138303 
O    -0.6712683   -3.8096919    3.6146483 
H    -1.0759739   -3.8096919    3.9297781 
H    -0.2665627   -3.8096919    3.9297781 
O    -3.0112229   -3.5644017   -2.4923152 
H    -3.4159285   -3.5644017   -2.1771854 
H    -2.6065172   -3.5644017   -2.1771854 
O    -4.5824581    1.9929071    1.7450960 
H    -4.9871637    1.9929071    2.0602258 
H    -4.1777524    1.9929071    2.0602258 
