15
Energy = -448.2535469153
O     0.3227377    0.0000000    0.0000000 
O    -0.3227377    0.0000000    0.0000000 
H     1.2815638    2.8838935   -1.9396243 
O    -1.8348059    1.7297405   -2.7096973 
H    -2.2395116    1.7297405   -2.3945675 
H    -1.4301003    1.7297405   -2.3945675 
O    -1.4250004   -2.4109882    2.4282024 
H    -1.8297060   -2.4109882    2.7433322 
H    -1.0202948   -2.4109882    2.7433322 
O    -2.7205143   -2.0297198   -1.4796199 
H    -3.1252200   -2.0297198   -1.1644901 
H    -2.3158087   -2.0297198   -1.1644901 
O    -3.0186363   -0.8048262   -1.9865821 
H    -3.4233419   -0.8048262   -1.6714523 
H    -2.6139307   -0.8048262   -1.6714523 
