15
Energy = -448.6340525053
O     0.3227377    0.0000000    0.0000000 
O    -0.3227377    0.0000000    0.0000000 
H     1.2419783   -2.0379030   -2.8329897 
O     1.1894769    2.6371537    2.3171937 
H     0.7847713    2.6371537    2.6323235 
H     1.5941825    2.6371537    2.6323235 
O     2.5229888    2.6696914   -0.4744246 
H     2.1182832    2.6696914   -0.1592949 
H     2.9276945    2.6696914   -0.1592949 
O     3.0238876    0.2477644   -2.1213488 
H     2.6191820    0.2477644   -1.8062191 
H     3.4285932    0.2477644   -1.8062191 
O     1.9359409    1.7612631   -2.6175854 
H     1.5312352    1.7612631   -2.3024556 
H     2.3406465    1.7612631   -2.3024556 
