15
Energy = -448.6946575289
O     0.3227377    0.0000000    0.0000000 
O    -0.3227377    0.0000000    0.0000000 
H     4.4388874    2.7156458   -0.9614481 
O     3.7533083    3.7275920    0.1471885 
H     3.3486027    3.7275920    0.4623182 
H     4.1580140    3.7275920    0.4623182 
O     1.7717406   -3.4875049   -3.5600931 
H     1.3670350   -3.4875049   -3.2449633 
H     2.1764462   -3.4875049   -3.2449633 
O     3.4181202    0.2861463    4.0333316 
H     3.0134145    0.2861463    4.3484613 
H     3.8228258    0.2861463    4.3484613 
O    -3.3817236   -3.0378955    2.7126336 
H    -3.7864293   -3.0378955    3.0277634 
H    -2.9770180   -3.0378955    3.0277634 
