15
Energy = -448.6982515474
O     0.3227377    0.0000000    0.0000000 
O    -0.3227377    0.0000000    0.0000000 
H    -3.3984795   -3.1665806   -2.5349439 
O    -3.9604868   -1.0326349    3.3580223 
H    -4.3651924   -1.0326349    3.6731521 
H    -3.5557812   -1.0326349    3.6731521 
O     3.0992192    3.5704629   -2.3730971 
H     2.6945136    3.5704629   -2.0579673 
H     3.5039249    3.5704629   -2.0579673 
O    -3.5332316   -3.9364109   -0.1504424 
H    -3.9379373   -3.9364109    0.1646873 
H    -3.1285260   -3.9364109    0.1646873 
O     3.6456615    3.3608943    1.8521089 
H     3.2409559    3.3608943    2.1672387 
H     4.0503672    3.3608943    2.1672387 
