15
Energy = -448.6975303852
O     0.3227377    0.0000000    0.0000000 
O    -0.3227377    0.0000000    0.0000000 
H     2.2512339    0.4206840   -2.9114190 
O    -3.4702953    0.2843087    1.2677301 
H    -3.8750009    0.2843087    1.5828598 
H    -3.0655896    0.2843087    1.5828598 
O    -1.7488811   -2.0751288   -2.5174743 
H    -2.1535867   -2.0751288   -2.2023445 
H    -1.3441755   -2.0751288   -2.2023445 
O    -1.0061569    3.5100914    0.6268988 
H    -1.4108625    3.5100914    0.9420286 
H    -0.6014513    3.5100914    0.9420286 
O    -1.8746007    1.4128621   -2.8617342 
H    -2.2793063    1.4128621   -2.5466044 
H    -1.4698951    1.4128621   -2.5466044 
