15
Energy = -448.7034544746
O     0.3227377    0.0000000    0.0000000 
O    -0.3227377    0.0000000    0.0000000 
H    -3.9192004   -3.1846933    1.5812756 
O    -0.3377095   -3.1787066    4.2209451 
H    -0.7424151   -3.1787066    4.5360748 
H     0.0669962   -3.1787066    4.5360748 
O    -4.1014107    3.1895844   -1.0001371 
H    -4.5061163    3.1895844   -0.6850073 
H    -3.6967050    3.1895844   -0.6850073 
O    -3.3455284   -3.8015030   -1.5320906 
H    -3.7502340   -3.8015030   -1.2169609 
H    -2.9408228   -3.8015030   -1.2169609 
O     0.4685038    0.6392255    5.2358511 
H     0.0637981    0.6392255    5.5509809 
H     0.8732094    0.6392255    5.5509809 
