15
Energy = -448.6797116813
O     0.3227377    0.0000000    0.0000000 
O    -0.3227377    0.0000000    0.0000000 
H     3.4192138    3.9170088    0.9843046 
O    -5.0998513    1.2174397    0.7194411 
H    -5.5045570    1.2174397    1.0345708 
H    -4.6951457    1.2174397    1.0345708 
O     2.1626308    2.9917400   -3.7877202 
H     1.7579252    2.9917400   -3.4725904 
H     2.5673364    2.9917400   -3.4725904 
O     5.2433239   -0.2262937   -0.6738647 
H     4.8386183   -0.2262937   -0.3587350 
H     5.6480296   -0.2262937   -0.3587350 
O     2.3703459   -0.0442272   -4.7272333 
H     1.9656403   -0.0442272   -4.4121036 
H     2.7750516   -0.0442272   -4.4121036 
