15
Energy = -448.6886992959
O     0.3227377    0.0000000    0.0000000 
O    -0.3227377    0.0000000    0.0000000 
H    -1.3293240    3.2788804   -3.9350574 
O     3.3442728    2.3559353   -3.3530561 
H     2.9395672    2.3559353   -3.0379263 
H     3.7489785    2.3559353   -3.0379263 
O     3.9086757   -3.4425139    0.9387451 
H     3.5039700   -3.4425139    1.2538748 
H     4.3133813   -3.4425139    1.2538748 
O     2.0281105    3.4092466    3.5061410 
H     1.6234049    3.4092466    3.8212708 
H     2.4328161    3.4092466    3.8212708 
O     0.8877126   -1.9554071   -4.8326790 
H     0.4830070   -1.9554071   -4.5175493 
H     1.2924182   -1.9554071   -4.5175493 
