15
Energy = -448.7073706741
O     0.3227377    0.0000000    0.0000000 
O    -0.3227377    0.0000000    0.0000000 
H    -2.2286797   -1.7325812   -2.3984450 
O    -2.3751922   -1.0958868    2.6265271 
H    -2.7798978   -1.0958868    2.9416569 
H    -1.9704866   -1.0958868    2.9416569 
O    -2.7637747   -2.3511945    0.7486294 
H    -3.1684803   -2.3511945    1.0637591 
H    -2.3590691   -2.3511945    1.0637591 
O     2.0737695   -2.9249004   -0.9267341 
H     1.6690639   -2.9249004   -0.6116044 
H     2.4784751   -2.9249004   -0.6116044 
O     2.3903034   -2.4964044    1.3363577 
H     1.9855977   -2.4964044    1.6514874 
H     2.7950090   -2.4964044    1.6514874 
