15
Energy = -448.6743455066
O     0.3227377    0.0000000    0.0000000 
O    -0.3227377    0.0000000    0.0000000 
H     1.7085673   -1.0684030    3.1081670 
O    -2.1297328    0.8290213   -2.9114288 
H    -2.5344384    0.8290213   -2.5962990 
H    -1.7250272    0.8290213   -2.5962990 
O     1.4261924    1.9963895   -2.7714462 
H     1.0214868    1.9963895   -2.4563164 
H     1.8308980    1.9963895   -2.4563164 
O     0.2363474   -3.0199160   -2.1282855 
H    -0.1683583   -3.0199160   -1.8131558 
H     0.6410530   -3.0199160   -1.8131558 
O     3.2349966   -1.5760402   -0.8750324 
H     2.8302910   -1.5760402   -0.5599027 
H     3.6397022   -1.5760402   -0.5599027 
