15
Energy = -448.6893393146
O     0.3227377    0.0000000    0.0000000 
O    -0.3227377    0.0000000    0.0000000 
H    -3.8317915   -2.2237001   -2.8940228 
O    -2.4547843    4.6509767   -0.5838455 
H    -2.8594900    4.6509767   -0.2687157 
H    -2.0500787    4.6509767   -0.2687157 
O    -2.2879162   -4.4744976   -1.6536874 
H    -2.6926218   -4.4744976   -1.3385576 
H    -1.8832106   -4.4744976   -1.3385576 
O     4.8805528   -1.6116947    1.2629232 
H     4.4758472   -1.6116947    1.5780530 
H     5.2852584   -1.6116947    1.5780530 
O     2.1015030    4.2397755   -2.3649534 
H     1.6967974    4.2397755   -2.0498237 
H     2.5062086    4.2397755   -2.0498237 
