15
Energy = -448.6652450214
O     0.3227377    0.0000000    0.0000000 
O    -0.3227377    0.0000000    0.0000000 
H    -3.3257259   -2.0429718    3.5733247 
O    -2.9601182    4.1662021   -1.3685680 
H    -3.3648238    4.1662021   -1.0534382 
H    -2.5554126    4.1662021   -1.0534382 
O    -3.2369439    3.9184647    1.4770821 
H    -3.6416495    3.9184647    1.7922118 
H    -2.8322383    3.9184647    1.7922118 
O     4.9922329    0.4550669    1.6988634 
H     4.5875273    0.4550669    2.0139931 
H     5.3969386    0.4550669    2.0139931 
O    -2.5093092    3.4132696   -3.1673227 
H    -2.9140148    3.4132696   -2.8521930 
H    -2.1046036    3.4132696   -2.8521930 
