15
Energy = -448.7007203296
O     0.3227377    0.0000000    0.0000000 
O    -0.3227377    0.0000000    0.0000000 
H    -3.1431035    1.9013627   -0.4765610 
O     2.0786934   -2.2166930   -2.1144176 
H     1.6739878   -2.2166930   -1.7992879 
H     2.4833991   -2.2166930   -1.7992879 
O    -2.2170533   -0.6931501    2.8891773 
H    -2.6217589   -0.6931501    3.2043071 
H    -1.8123477   -0.6931501    3.2043071 
O     3.0724142    2.0663635   -0.1048742 
H     2.6677086    2.0663635    0.2102555 
H     3.4771199    2.0663635    0.2102555 
O    -1.7990932    2.4227015   -2.1445304 
H    -2.2037988    2.4227015   -1.8294007 
H    -1.3943876    2.4227015   -1.8294007 
