15
Energy = -448.6638893415
O     0.3227377    0.0000000    0.0000000 
O    -0.3227377    0.0000000    0.0000000 
H     3.1477729    2.8845431    3.1263034 
O    -0.5824662    5.2551579   -0.2127652 
H    -0.9871719    5.2551579    0.1023645 
H    -0.1777606    5.2551579    0.1023645 
O     2.7624774    0.1411261   -4.5075146 
H     2.3577717    0.1411261   -4.1923848 
H     3.1671830    0.1411261   -4.1923848 
O     2.7743554    2.4998394   -3.7454476 
H     2.3696497    2.4998394   -3.4303179 
H     3.1790610    2.4998394   -3.4303179 
O     0.5206900   -2.0384749   -4.8517827 
H     0.1159844   -2.0384749   -4.5366529 
H     0.9253956   -2.0384749   -4.5366529 
