15
Energy = -448.6893007493
O     0.3227377    0.0000000    0.0000000 
O    -0.3227377    0.0000000    0.0000000 
H     0.5685325    2.2119587    4.7735569 
O    -0.1557928    1.8519168   -4.9509271 
H    -0.5604984    1.8519168   -4.6357974 
H     0.2489128    1.8519168   -4.6357974 
O     0.6579961   -4.3740308   -2.9010129 
H     0.2532904   -4.3740308   -2.5858831 
H     1.0627017   -4.3740308   -2.5858831 
O    -2.5057431    4.2045819    2.0151270 
H    -2.9104487    4.2045819    2.3302567 
H    -2.1010374    4.2045819    2.3302567 
O     3.6143300    3.4693936    1.7075142 
H     3.2096244    3.4693936    2.0226439 
H     4.0190356    3.4693936    2.0226439 
