15
Energy = -448.6941426900
O     0.3227377    0.0000000    0.0000000 
O    -0.3227377    0.0000000    0.0000000 
H     0.5220785    2.7398337    4.4970636 
O     3.3080510    3.7172184    1.8042983 
H     2.9033454    3.7172184    2.1194280 
H     3.7127567    3.7172184    2.1194280 
O     3.8711555    2.0435952   -2.9695686 
H     3.4664499    2.0435952   -2.6544389 
H     4.2758611    2.0435952   -2.6544389 
O    -3.4549803    2.0590498    3.4426976 
H    -3.8596859    2.0590498    3.7578274 
H    -3.0502746    2.0590498    3.7578274 
O    -3.8006190    2.6853208   -2.5155973 
H    -4.2053246    2.6853208   -2.2004675 
H    -3.3959134    2.6853208   -2.2004675 
