15
Energy = -448.6892681202
O     0.3227377    0.0000000    0.0000000 
O    -0.3227377    0.0000000    0.0000000 
H     3.3914291   -3.5453251    1.9828552 
O    -4.3890896    0.7942990   -2.8436586 
H    -4.7937952    0.7942990   -2.5285288 
H    -3.9843840    0.7942990   -2.5285288 
O     2.3572669    1.5426341   -4.4757901 
H     1.9525613    1.5426341   -4.1606603 
H     2.7619725    1.5426341   -4.1606603 
O    -0.5549894    3.5105297    3.9243517 
H    -0.9596950    3.5105297    4.2394814 
H    -0.1502837    3.5105297    4.2394814 
O     4.3068350   -3.0484503   -0.3974327 
H     3.9021294   -3.0484503   -0.0823029 
H     4.7115406   -3.0484503   -0.0823029 
