15
Energy = -448.7045924317
O     0.3227377    0.0000000    0.0000000 
O    -0.3227377    0.0000000    0.0000000 
H    -0.2972575    2.0916015    3.0427341 
O    -1.8087055   -2.3667879   -2.1981186 
H    -2.2134111   -2.3667879   -1.8829888 
H    -1.4039999   -2.3667879   -1.8829888 
O     2.3793128   -1.7113350   -2.2615375 
H     1.9746071   -1.7113350   -1.9464077 
H     2.7840184   -1.7113350   -1.9464077 
O    -2.9639316   -1.5836994    1.5620954 
H    -3.3686372   -1.5836994    1.8772252 
H    -2.5592260   -1.5836994    1.8772252 
O     0.6718064   -2.5236643    2.6307750 
H     0.2671008   -2.5236643    2.9459047 
H     1.0765121   -2.5236643    2.9459047 
