15
Energy = -448.6557631536
O     0.3227377    0.0000000    0.0000000 
O    -0.3227377    0.0000000    0.0000000 
H     3.8379166    3.2180170    1.7080979 
O    -4.2615822    2.0520729    2.3766846 
H    -4.6662878    2.0520729    2.6918143 
H    -3.8568766    2.0520729    2.6918143 
O     2.7203336   -3.3087788    3.1109504 
H     2.3156280   -3.3087788    3.4260801 
H     3.1250392   -3.3087788    3.4260801 
O     5.1264271    0.8885645    0.9697015 
H     4.7217215    0.8885645    1.2848313 
H     5.5311327    0.8885645    1.2848313 
O     3.6823929    3.7789222    0.4069580 
H     3.2776873    3.7789222    0.7220878 
H     4.0870986    3.7789222    0.7220878 
