15
Energy = -448.6969887766
O     0.3227377    0.0000000    0.0000000 
O    -0.3227377    0.0000000    0.0000000 
H    -2.5037466    4.2048145    2.0133615 
O     2.6364707   -3.1707737   -3.3125668 
H     2.2317650   -3.1707737   -2.9974370 
H     3.0411763   -3.1707737   -2.9974370 
O     2.3913513   -4.3772056    1.7713464 
H     1.9866457   -4.3772056    2.0864762 
H     2.7960569   -4.3772056    2.0864762 
O    -2.8471698    3.6446504   -2.5678078 
H    -3.2518754    3.6446504   -2.2526780 
H    -2.4424642    3.6446504   -2.2526780 
O     1.7963574    0.7939226    4.9175840 
H     1.3916518    0.7939226    5.2327138 
H     2.2010631    0.7939226    5.2327138 
