15
Energy = -448.6744051353
O     0.3227377    0.0000000    0.0000000 
O    -0.3227377    0.0000000    0.0000000 
H     3.6060537   -0.6004764    3.8260477 
O     3.0200148   -3.1833608   -2.9540322 
H     2.6153091   -3.1833608   -2.6389024 
H     3.4247204   -3.1833608   -2.6389024 
O     2.8525545    3.5696785   -2.6651612 
H     2.4478489    3.5696785   -2.3500315 
H     3.2572601    3.5696785   -2.3500315 
O     4.8115621   -0.6581248   -2.0982770 
H     4.4068564   -0.6581248   -1.7831472 
H     5.2162677   -0.6581248   -1.7831472 
O     1.1879625    0.0705907   -5.1524549 
H     0.7832569    0.0705907   -4.8373251 
H     1.5926682    0.0705907   -4.8373251 
