15
Energy = -448.6872760157
O     0.3227377    0.0000000    0.0000000 
O    -0.3227377    0.0000000    0.0000000 
H    -4.2024205    2.0455277    2.4815952 
O     0.8172100    2.3979612   -4.6421785 
H     0.4125043    2.3979612   -4.3270488 
H     1.2219156    2.3979612   -4.3270488 
O    -3.2683215    3.2892668    2.5535947 
H    -3.6730271    3.2892668    2.8687245 
H    -2.8636159    3.2892668    2.8687245 
O     4.7880333    0.9002771    2.0694543 
H     4.3833276    0.9002771    2.3845841 
H     5.1927389    0.9002771    2.3845841 
O     1.4476364   -1.8865403    4.7311475 
H     1.0429308   -1.8865403    5.0462773 
H     1.8523420   -1.8865403    5.0462773 
