15
Energy = -448.6638197563
O     0.3227377    0.0000000    0.0000000 
O    -0.3227377    0.0000000    0.0000000 
H     3.1020610    1.9355249   -3.8254147 
O    -1.9085212   -1.4112414   -4.7258001 
H    -2.3132268   -1.4112414   -4.4106703 
H    -1.5038156   -1.4112414   -4.4106703 
O    -1.9703945   -3.3842676   -3.5553245 
H    -2.3751001   -3.3842676   -3.2401947 
H    -1.5656889   -3.3842676   -3.2401947 
O    -5.2363284   -0.7391891   -0.1893693 
H    -5.6410340   -0.7391891    0.1257605 
H    -4.8316228   -0.7391891    0.1257605 
O     4.0055110   -3.2181281   -1.2620828 
H     3.6008054   -3.2181281   -0.9469530 
H     4.4102166   -3.2181281   -0.9469530 
