15
Energy = -448.6943048602
O     0.3227377    0.0000000    0.0000000 
O    -0.3227377    0.0000000    0.0000000 
H    -1.0239628   -0.7653503    5.1350341 
O    -1.7851025   -3.7109642    3.3271649 
H    -2.1898081   -3.7109642    3.6422946 
H    -1.3803968   -3.7109642    3.6422946 
O     2.8867524    0.3605681   -4.4165848 
H     2.4820468    0.3605681   -4.1014550 
H     3.2914580    0.3605681   -4.1014550 
O     4.8598808   -0.8853201    1.9012899 
H     4.4551752   -0.8853201    2.2164197 
H     5.2645864   -0.8853201    2.2164197 
O     3.8554780    3.6166275   -0.2373380 
H     3.4507724    3.6166275    0.0777918 
H     4.2601837    3.6166275    0.0777918 
