15
Energy = -448.7090561038
O     0.3227377    0.0000000    0.0000000 
O    -0.3227377    0.0000000    0.0000000 
H    -0.8693445   -2.0033377   -2.9920340 
O     2.1611769    2.6902547    1.3503282 
H     1.7564713    2.6902547    1.6654579 
H     2.5658825    2.6902547    1.6654579 
O    -0.5745573    2.0630277    3.0262122 
H    -0.9792629    2.0630277    3.3413420 
H    -0.1698517    2.0630277    3.3413420 
O    -1.7250827   -0.4428075   -3.2442196 
H    -2.1297884   -0.4428075   -2.9290899 
H    -1.3203771   -0.4428075   -2.9290899 
O     3.3134132   -1.5827372    0.4912334 
H     2.9087075   -1.5827372    0.8063632 
H     3.7181188   -1.5827372    0.8063632 
