15
Energy = -448.6266708018
O     0.3227377    0.0000000    0.0000000 
O    -0.3227377    0.0000000    0.0000000 
H    -3.9104102    3.2267148    1.5165222 
O     2.9050703   -4.2389033    1.2667378 
H     2.5003647   -4.2389033    1.5818675 
H     3.3097759   -4.2389033    1.5818675 
O     1.3591441   -3.9713949   -3.2185928 
H     0.9544385   -3.9713949   -2.9034630 
H     1.7638497   -3.9713949   -2.9034630 
O     4.2344815    3.0706887   -0.7980292 
H     3.8297759    3.0706887   -0.4828995 
H     4.6391871    3.0706887   -0.4828995 
O    -3.2573891    4.0760683    0.8857619 
H    -3.6620947    4.0760683    1.2008916 
H    -2.8526834    4.0760683    1.2008916 
