15
Energy = -448.7036267694
O     0.3227377    0.0000000    0.0000000 
O    -0.3227377    0.0000000    0.0000000 
H    -3.2334989    2.5859277   -3.2954968 
O    -5.0158264   -0.0329962    1.6899534 
H    -5.4205320   -0.0329962    2.0050832 
H    -4.6111207   -0.0329962    2.0050832 
O     0.2839528    3.6700488    3.8054679 
H    -0.1207528    3.6700488    4.1205977 
H     0.6886584    3.6700488    4.1205977 
O     3.1586271    3.3655531    2.5920000 
H     2.7539215    3.3655531    2.9071297 
H     3.5633327    3.3655531    2.9071297 
O    -2.2149189   -4.5826607    1.4515873 
H    -2.6196245   -4.5826607    1.7667171 
H    -1.8102133   -4.5826607    1.7667171 
