15
Energy = -448.6880213406
O     0.3227377    0.0000000    0.0000000 
O    -0.3227377    0.0000000    0.0000000 
H     1.3125531    2.4722919    4.4908589 
O    -4.4166977   -0.2251205   -2.9022532 
H    -4.8214033   -0.2251205   -2.5871234 
H    -4.0119921   -0.2251205   -2.5871234 
O    -2.4039275    4.2006606    2.1434885 
H    -2.8086331    4.2006606    2.4586182 
H    -1.9992219    4.2006606    2.4586182 
O    -1.1664824   -1.7392829   -4.8559732 
H    -1.5711880   -1.7392829   -4.5408434 
H    -0.7617768   -1.7392829   -4.5408434 
O     1.1246893    4.8138351    1.8918593 
H     0.7199837    4.8138351    2.2069891 
H     1.5293949    4.8138351    2.2069891 
