15
Energy = -448.7033876310
O     0.3227377    0.0000000    0.0000000 
O    -0.3227377    0.0000000    0.0000000 
H    -0.8849734    5.2171890    0.0244385 
O    -1.5901886    3.7802384    3.3480034 
H    -1.9948943    3.7802384    3.6631331 
H    -1.1854830    3.7802384    3.6631331 
O    -1.8947502   -4.1976719    2.6099702 
H    -2.2994558   -4.1976719    2.9251000 
H    -1.4900446   -4.1976719    2.9251000 
O    -1.5251886   -0.4870174    5.0475180 
H    -1.9298943   -0.4870174    5.3626477 
H    -1.1204830   -0.4870174    5.3626477 
O     4.2403115   -2.1622119   -2.3086875 
H     3.8356059   -2.1622119   -1.9935577 
H     4.6450171   -2.1622119   -1.9935577 
