15
Energy = -448.6421096527
O     0.3227377    0.0000000    0.0000000 
O    -0.3227377    0.0000000    0.0000000 
H    -1.7386276   -4.8251157   -1.3031763 
O     3.3292995   -2.0702912   -3.5504577 
H     2.9245939   -2.0702912   -3.2353280 
H     3.7340051   -2.0702912   -3.2353280 
O    -3.2880757   -2.8368464    3.0276192 
H    -3.6927813   -2.8368464    3.3427489 
H    -2.8833700   -2.8368464    3.3427489 
O    -4.5665889   -1.5832949    2.1583593 
H    -4.9712945   -1.5832949    2.4734891 
H    -4.1618833   -1.5832949    2.4734891 
O    -0.0697956   -2.9063069   -4.4179258 
H    -0.4745012   -2.9063069   -4.1027960 
H     0.3349100   -2.9063069   -4.1027960 
