15
Energy = -448.6441279168
O     0.3227377    0.0000000    0.0000000 
O    -0.3227377    0.0000000    0.0000000 
H    -5.2790664   -0.0790364   -0.3578374 
O    -4.2640781    0.3147124   -3.1141563 
H    -4.6687837    0.3147124   -2.7990266 
H    -3.8593725    0.3147124   -2.7990266 
O    -1.1638016   -4.2745939   -2.8904105 
H    -1.5685072   -4.2745939   -2.5752807 
H    -0.7590960   -4.2745939   -2.5752807 
O     1.8837484   -4.2242571    2.5747526 
H     1.4790428   -4.2242571    2.8898824 
H     2.2884541   -4.2242571    2.8898824 
O    -0.8309355   -5.0905560   -1.1788688 
H    -1.2356412   -5.0905560   -0.8637390 
H    -0.4262299   -5.0905560   -0.8637390 
