15
Energy = -448.6592249660
O     0.3227377    0.0000000    0.0000000 
O    -0.3227377    0.0000000    0.0000000 
H    -3.5756594   -2.4327391   -3.0494714 
O    -1.1531246    3.2629780   -3.9994985 
H    -1.5578302    3.2629780   -3.6843688 
H    -0.7484190    3.2629780   -3.6843688 
O    -0.4972100   -2.4079226    4.6896504 
H    -0.9019156   -2.4079226    5.0047802 
H    -0.0925044   -2.4079226    5.0047802 
O     0.1758196    0.5768592   -5.2535311 
H    -0.2288861    0.5768592   -4.9384014 
H     0.5805252    0.5768592   -4.9384014 
O     2.2866345    0.1320732   -4.7666334 
H     1.8819288    0.1320732   -4.4515036 
H     2.6913401    0.1320732   -4.4515036 
