15
Energy = -448.6842920997
O     0.3227377    0.0000000    0.0000000 
O    -0.3227377    0.0000000    0.0000000 
H    -3.2148745    3.8181746    1.7575438 
O     0.5817586    1.8103315   -4.9345645 
H     0.1770530    1.8103315   -4.6194347 
H     0.9864642    1.8103315   -4.6194347 
O     0.0646049   -5.2158682    0.8944837 
H    -0.3401007   -5.2158682    1.2096134 
H     0.4693105   -5.2158682    1.2096134 
O    -3.0977891    4.1956287   -0.8924713 
H    -3.5024947    4.1956287   -0.5773415 
H    -2.6930835    4.1956287   -0.5773415 
O    -3.8308695   -1.3035225   -3.4062361 
H    -4.2355752   -1.3035225   -3.0911063 
H    -3.4261639   -1.3035225   -3.0911063 
