15
Energy = -448.6871431483
O     0.3227377    0.0000000    0.0000000 
O    -0.3227377    0.0000000    0.0000000 
H     3.8779093    1.5722019   -3.2392649 
O    -5.0431263    0.3895381    1.5587478 
H    -5.4478319    0.3895381    1.8738776 
H    -4.6384207    0.3895381    1.8738776 
O    -3.4191047   -3.3615317   -2.2351334 
H    -3.8238103   -3.3615317   -1.9200036 
H    -3.0143991   -3.3615317   -1.9200036 
O     0.9781858    2.4005649   -4.6096157 
H     0.5734802    2.4005649   -4.2944860 
H     1.3828914    2.4005649   -4.2944860 
O     4.7586244   -2.0508793    1.0771816 
H     4.3539188   -2.0508793    1.3923113 
H     5.1633300   -2.0508793    1.3923113 
