15
Energy = -448.6372098823
O     0.3227377    0.0000000    0.0000000 
O    -0.3227377    0.0000000    0.0000000 
H     2.5314533    4.5680616    0.8528738 
O    -0.8423166    4.5075225   -2.6373679 
H    -1.2470222    4.5075225   -2.3222381 
H    -0.4376109    4.5075225   -2.3222381 
O    -3.2781200   -1.3121678    3.9452085 
H    -3.6828256   -1.3121678    4.2603382 
H    -2.8734144   -1.3121678    4.2603382 
O     3.0096594    3.1568068   -2.9927931 
H     2.6049537    3.1568068   -2.6776633 
H     3.4143650    3.1568068   -2.6776633 
O     1.0222333    3.8819388   -3.4441953 
H     0.6175277    3.8819388   -3.1290655 
H     1.4269389    3.8819388   -3.1290655 
