15
Energy = -448.6990679853
O     0.3227377    0.0000000    0.0000000 
O    -0.3227377    0.0000000    0.0000000 
H     1.8610468    2.2188962   -2.3096308 
O    -2.8754776    2.2030911   -0.7704498 
H    -3.2801833    2.2030911   -0.4553200 
H    -2.4707720    2.2030911   -0.4553200 
O    -1.9844489   -2.9639679   -0.9953585 
H    -2.3891546   -2.9639679   -0.6802287 
H    -1.5797433   -2.9639679   -0.6802287 
O     2.9772151    0.4736032    2.1562699 
H     2.5725095    0.4736032    2.4713997 
H     3.3819208    0.4736032    2.4713997 
O    -1.1172293    2.2302563   -2.7346922 
H    -1.5219349    2.2302563   -2.4195625 
H    -0.7125237    2.2302563   -2.4195625 
