15
Energy = -448.6935551367
O     0.3227377    0.0000000    0.0000000 
O    -0.3227377    0.0000000    0.0000000 
H     2.3247816   -3.9095210   -2.7044172 
O    -0.2279700   -2.1138828   -4.8420962 
H    -0.6326756   -2.1138828   -4.5269664 
H     0.1767356   -2.1138828   -4.5269664 
O    -3.7044292    0.0582458    3.7822096 
H    -4.1091348    0.0582458    4.0973394 
H    -3.2997236    0.0582458    4.0973394 
O    -2.5762910   -4.5244568   -0.9422013 
H    -2.9809967   -4.5244568   -0.6270716 
H    -2.1715854   -4.5244568   -0.6270716 
O    -3.6767564    3.5003876    1.4976135 
H    -4.0814620    3.5003876    1.8127433 
H    -3.2720508    3.5003876    1.8127433 
