15
Energy = -448.7050646634
O     0.3227377    0.0000000    0.0000000 
O    -0.3227377    0.0000000    0.0000000 
H    -2.2409147   -1.6954005    4.4840556 
O    -3.8557413   -1.9797291    3.0396775 
H    -4.2604469   -1.9797291    3.3548073 
H    -3.4510356   -1.9797291    3.3548073 
O     2.1991078    2.4484535    4.1476559 
H     1.7944022    2.4484535    4.4627856 
H     2.6038134    2.4484535    4.4627856 
O     1.1691776    4.6916845    2.1541031 
H     0.7644720    4.6916845    2.4692328 
H     1.5738832    4.6916845    2.4692328 
O     3.1693105   -3.0359089    2.9603781 
H     2.7646049   -3.0359089    3.2755079 
H     3.5740161   -3.0359089    3.2755079 
