15
Energy = -448.5990655503
O     0.3227377    0.0000000    0.0000000 
O    -0.3227377    0.0000000    0.0000000 
H    -3.7879112    0.1613924    3.6916822 
O     1.6894409   -4.4186861   -2.3676990 
H     1.2847353   -4.4186861   -2.0525692 
H     2.0941465   -4.4186861   -2.0525692 
O     2.0911684   -3.2202940   -3.6376030 
H     1.6864628   -3.2202940   -3.3224733 
H     2.4958740   -3.2202940   -3.3224733 
O     1.8210484   -4.5207180    2.0652512 
H     1.4163428   -4.5207180    2.3803810 
H     2.2257541   -4.5207180    2.3803810 
O    -2.5573361    4.0730016   -2.2038419 
H    -2.9620417    4.0730016   -1.8887121 
H    -2.1526305    4.0730016   -1.8887121 
