15
Energy = -448.6655230790
O     0.3227377    0.0000000    0.0000000 
O    -0.3227377    0.0000000    0.0000000 
H     1.3528954   -4.7636817    1.8654347 
O    -4.3720939   -1.4284285   -2.6129554 
H    -4.7767996   -1.4284285   -2.2978256 
H    -3.9673883   -1.4284285   -2.2978256 
O     4.9624273    1.1045499    1.4724785 
H     4.5577217    1.1045499    1.7876083 
H     5.3671329    1.1045499    1.7876083 
O    -3.2672738    1.2627632   -3.9627437 
H    -3.6719794    1.2627632   -3.6476139 
H    -2.8625682    1.2627632   -3.6476139 
O    -3.4125907    3.1058980   -2.5866908 
H    -3.8172963    3.1058980   -2.2715611 
H    -3.0078851    3.1058980   -2.2715611 
