15
Energy = -448.6894963709
O     0.3227377    0.0000000    0.0000000 
O    -0.3227377    0.0000000    0.0000000 
H    -3.1998953    1.9049714   -3.7595997 
O    -0.2259537    2.8449722    4.4599864 
H    -0.6306594    2.8449722    4.7751162 
H     0.1787519    2.8449722    4.7751162 
O    -0.4269050    4.2170257   -3.1644026 
H    -0.8316106    4.2170257   -2.8492729 
H    -0.0221994    4.2170257   -2.8492729 
O     2.1377898    2.6409993    4.0605875 
H     1.7330842    2.6409993    4.3757173 
H     2.5424954    2.6409993    4.3757173 
O    -4.4600867    2.7325325    0.8060917 
H    -4.8647923    2.7325325    1.1212215 
H    -4.0553811    2.7325325    1.1212215 
