15
Energy = -448.6949187441
O     0.3227377    0.0000000    0.0000000 
O    -0.3227377    0.0000000    0.0000000 
H     5.0498070   -0.3430325   -1.5442196 
O     2.6946924    3.0568554   -3.3721953 
H     2.2899868    3.0568554   -3.0570656 
H     3.0993980    3.0568554   -3.0570656 
O     2.0048133    3.8188433    3.0697057 
H     1.6001077    3.8188433    3.3848355 
H     2.4095189    3.8188433    3.3848355 
O    -3.1910392    3.1342080    2.8316338 
H    -3.5957448    3.1342080    3.1467636 
H    -2.7863336    3.1342080    3.1467636 
O    -3.6105675   -3.5416977   -1.5528395 
H    -4.0152731   -3.5416977   -1.2377098 
H    -3.2058619   -3.5416977   -1.2377098 
