15
Energy = -448.6999489794
O     0.3227377    0.0000000    0.0000000 
O    -0.3227377    0.0000000    0.0000000 
H    -4.3232388    1.7848147   -2.4752532 
O    -1.1636241   -4.4561403   -2.6023108 
H    -1.5683297   -4.4561403   -2.2871811 
H    -0.7589184   -4.4561403   -2.2871811 
O    -3.4018309   -3.7008282    1.6573223 
H    -3.8065365   -3.7008282    1.9724520 
H    -2.9971253   -3.7008282    1.9724520 
O    -0.2532373    5.2845692   -0.1059421 
H    -0.6579429    5.2845692    0.2091876 
H     0.1514683    5.2845692    0.2091876 
O    -0.0006196   -3.8325518    3.6526523 
H    -0.4053252   -3.8325518    3.9677821 
H     0.4040860   -3.8325518    3.9677821 
