15
Energy = -448.6846404417
O     0.3227377    0.0000000    0.0000000 
O    -0.3227377    0.0000000    0.0000000 
H    -1.9696568   -0.5920586   -4.8757312 
O     3.8092130    3.5780277    0.8346979 
H     3.4045074    3.5780277    1.1498277 
H     4.2139186    3.5780277    1.1498277 
O     2.1993439   -2.8823853   -3.8507883 
H     1.7946383   -2.8823853   -3.5356586 
H     2.6040496   -2.8823853   -3.5356586 
O     1.8432025   -4.9537779    0.2597426 
H     1.4384969   -4.9537779    0.5748724 
H     2.2479081   -4.9537779    0.5748724 
O     3.8394201   -0.1230042   -3.6358178 
H     3.4347145   -0.1230042   -3.3206880 
H     4.2441258   -0.1230042   -3.3206880 
