15
Energy = -448.7333070373
O     0.3227377    0.0000000    0.0000000 
O    -0.3227377    0.0000000    0.0000000 
H     2.5714173   -0.3512657   -4.6116441 
O    -0.9914898   -3.1037005   -4.1659870 
H    -1.3961954   -3.1037005   -3.8508573 
H    -0.5867842   -3.1037005   -3.8508573 
O    -5.0938947    1.1614219    0.8441051 
H    -5.4986003    1.1614219    1.1592349 
H    -4.6891890    1.1614219    1.1592349 
O    -4.3903588   -1.8796134    2.2829396 
H    -4.7950644   -1.8796134    2.5980693 
H    -3.9856532   -1.8796134    2.5980693 
O     0.5899923    0.8478327   -5.1862187 
H     0.1852867    0.8478327   -4.8710889 
H     0.9946979    0.8478327   -4.8710889 
