15
Energy = -448.6914485192
O     0.3227377    0.0000000    0.0000000 
O    -0.3227377    0.0000000    0.0000000 
H     0.6729078   -2.1380959   -4.7935975 
O     3.1636846    3.2014610    2.7866736 
H     2.7589789    3.2014610    3.1018033 
H     3.5683902    3.2014610    3.1018033 
O     3.2667264   -0.8187438   -4.0780236 
H     2.8620207   -0.8187438   -3.7628938 
H     3.6714320   -0.8187438   -3.7628938 
O     4.8237799    2.1718745    0.1339363 
H     4.4190743    2.1718745    0.4490661 
H     5.2284855    2.1718745    0.4490661 
O    -0.7251406    5.0393641   -1.4390858 
H    -1.1298462    5.0393641   -1.1239560 
H    -0.3204349    5.0393641   -1.1239560 
