15
Energy = -448.6581433031
O     0.3227377    0.0000000    0.0000000 
O    -0.3227377    0.0000000    0.0000000 
H    -3.0976542    2.9914377    3.0754960 
O     3.6743735   -0.4894651   -3.7727736 
H     3.2696679   -0.4894651   -3.4576438 
H     4.0790791   -0.4894651   -3.4576438 
O     3.4932830    1.7480654   -3.5661203 
H     3.0885774    1.7480654   -3.2509906 
H     3.8979886    1.7480654   -3.2509906 
O     2.3258810   -1.3303974    4.5670041 
H     1.9211754   -1.3303974    4.8821339 
H     2.7305867   -1.3303974    4.8821339 
O    -1.7259394    2.9238342   -4.0551963 
H    -2.1306451    2.9238342   -3.7400666 
H    -1.3212338    2.9238342   -3.7400666 
