15
Energy = -448.6911780973
O     0.3227377    0.0000000    0.0000000 
O    -0.3227377    0.0000000    0.0000000 
H     3.8048038   -3.0328033    2.0804828 
O    -0.7341599   -1.4916229    5.0275983 
H    -1.1388655   -1.4916229    5.3427281 
H    -0.3294543   -1.4916229    5.3427281 
O     2.3599341    3.6264001    3.0505282 
H     1.9552285    3.6264001    3.3656579 
H     2.7646397    3.6264001    3.3656579 
O     0.6835231    4.8507581    2.0052086 
H     0.2788175    4.8507581    2.3203383 
H     1.0882287    4.8507581    2.3203383 
O     4.0242476   -0.4520008   -3.4026945 
H     3.6195420   -0.4520008   -3.0875647 
H     4.4289532   -0.4520008   -3.0875647 
