15
Energy = -448.6765820754
O     0.3227377    0.0000000    0.0000000 
O    -0.3227377    0.0000000    0.0000000 
H    -0.6655975    2.8517556    4.4076418 
O     3.7749207   -1.8817949    3.1993329 
H     3.3702151   -1.8817949    3.5144626 
H     4.1796264   -1.8817949    3.5144626 
O    -4.1793199    0.8546226   -3.1276477 
H    -4.5840255    0.8546226   -2.8125179 
H    -3.7746142    0.8546226   -2.8125179 
O    -2.4068552    2.7395884    3.8384143 
H    -2.8115608    2.7395884    4.1535441 
H    -2.0021496    2.7395884    4.1535441 
O     4.7414923    0.6930531    2.2489290 
H     4.3367867    0.6930531    2.5640588 
H     5.1461980    0.6930531    2.5640588 
