15
Energy = -448.6968545141
O     0.3227377    0.0000000    0.0000000 
O    -0.3227377    0.0000000    0.0000000 
H     3.0108866   -3.6982506   -2.2935432 
O     3.1954670    2.6879529   -3.2468872 
H     2.7907613    2.6879529   -2.9317575 
H     3.6001726    2.6879529   -2.9317575 
O    -4.8443109   -1.1313412    1.8080802 
H    -5.2490165   -1.1313412    2.1232099 
H    -4.4396053   -1.1313412    2.1232099 
O     3.2867804    4.0243435   -0.9985179 
H     2.8820748    4.0243435   -0.6833881 
H     3.6914860    4.0243435   -0.6833881 
O     2.9649407    3.2704710    2.9219801 
H     2.5602350    3.2704710    3.2371099 
H     3.3696463    3.2704710    3.2371099 
