15
Energy = -448.6401137705
O     0.3227377    0.0000000    0.0000000 
O    -0.3227377    0.0000000    0.0000000 
H     3.0192619   -1.0233891    1.8862986 
O     2.1868749    2.8447469    0.9237553 
H     1.7821693    2.8447469    1.2388850 
H     2.5915805    2.8447469    1.2388850 
O     2.2186655    2.5751660   -1.4684561 
H     1.8139598    2.5751660   -1.1533264 
H     2.6233711    2.5751660   -1.1533264 
O     0.5451266   -3.4305864    1.2903505 
H     0.1404209   -3.4305864    1.6054802 
H     0.9498322   -3.4305864    1.6054802 
O     2.2201467    1.1902830   -2.7120347 
H     1.8154410    1.1902830   -2.3969049 
H     2.6248523    1.1902830   -2.3969049 
