15
Energy = -448.6872279711
O     0.3227377    0.0000000    0.0000000 
O    -0.3227377    0.0000000    0.0000000 
H     0.6785218    4.7735449    2.1807597 
O    -2.7119489    4.3437225    1.3380222 
H    -3.1166545    4.3437225    1.6531520 
H    -2.3072433    4.3437225    1.6531520 
O    -1.5238358    3.5190433   -3.6427537 
H    -1.9285414    3.5190433   -3.3276240 
H    -1.1191302    3.5190433   -3.3276240 
O    -0.7279340   -2.2617498   -4.7246006 
H    -1.1326396   -2.2617498   -4.4094708 
H    -0.3232284   -2.2617498   -4.4094708 
O    -0.2220293   -5.2745197    0.3684304 
H    -0.6267349   -5.2745197    0.6835602 
H     0.1826763   -5.2745197    0.6835602 
