15
Energy = -448.7088847085
O     0.3227377    0.0000000    0.0000000 
O    -0.3227377    0.0000000    0.0000000 
H     1.2727563    0.7160197   -3.4042322 
O     2.4339019    1.6379928    2.2652885 
H     2.0291962    1.6379928    2.5804182 
H     2.8386075    1.6379928    2.5804182 
O     2.0851978    2.9389364   -0.8541357 
H     1.6804922    2.9389364   -0.5390059 
H     2.4899035    2.9389364   -0.5390059 
O    -1.0223080   -1.4344811    3.2623746 
H    -1.4270137   -1.4344811    3.5775043 
H    -0.6176024   -1.4344811    3.5775043 
O    -1.8931274   -2.6581879    1.7563327 
H    -2.2978330   -2.6581879    2.0714625 
H    -1.4884218   -2.6581879    2.0714625 
