15
Energy = -448.7081061615
O     0.3227377    0.0000000    0.0000000 
O    -0.3227377    0.0000000    0.0000000 
H     1.3309801   -2.3228059    2.5601669 
O     1.7298378   -2.0839941   -2.5232930 
H     1.3251322   -2.0839941   -2.2081633 
H     2.1345434   -2.0839941   -2.2081633 
O    -2.6907593   -2.5271450   -0.3040386 
H    -3.0954649   -2.5271450    0.0110912 
H    -2.2860536   -2.5271450    0.0110912 
O    -1.8093167    2.1430606    2.4234864 
H    -2.2140223    2.1430606    2.7386161 
H    -1.4046110    2.1430606    2.7386161 
O    -0.5880188    3.4024420   -1.3375081 
H    -0.9927244    3.4024420   -1.0223783 
H    -0.1833131    3.4024420   -1.0223783 
