15
Energy = -448.6909053161
O     0.3227377    0.0000000    0.0000000 
O    -0.3227377    0.0000000    0.0000000 
H     2.1436267    0.0931964   -4.8372528 
O    -3.7503840   -2.7589231    2.5188785 
H    -4.1550896   -2.7589231    2.8340083 
H    -3.3456784   -2.7589231    2.8340083 
O    -4.0838106    0.2429875    3.3602931 
H    -4.4885162    0.2429875    3.6754228 
H    -3.6791050    0.2429875    3.6754228 
O     5.1804086    0.6674564   -0.8451789 
H     4.7757030    0.6674564   -0.5300491 
H     5.5851142    0.6674564   -0.5300491 
O     3.0054412   -3.1402455   -3.0143504 
H     2.6007356   -3.1402455   -2.6992207 
H     3.4101468   -3.1402455   -2.6992207 
