15
Energy = -448.6904702462
O     0.3227377    0.0000000    0.0000000 
O    -0.3227377    0.0000000    0.0000000 
H    -4.2091265    1.8346858   -2.6305928 
O    -2.1306703   -4.6268222    1.4374997 
H    -2.5353759   -4.6268222    1.7526294 
H    -1.7259647   -4.6268222    1.7526294 
O     3.9607143   -2.2585732   -2.6822038 
H     3.5560087   -2.2585732   -2.3670741 
H     4.3654199   -2.2585732   -2.3670741 
O    -4.0339107   -0.7194344   -3.3447896 
H    -4.4386163   -0.7194344   -3.0296599 
H    -3.6292051   -0.7194344   -3.0296599 
O    -4.9534391   -1.4702536    1.1459693 
H    -5.3581447   -1.4702536    1.4610990 
H    -4.5487335   -1.4702536    1.4610990 
