15
Energy = -448.6949272580
O     0.3227377    0.0000000    0.0000000 
O    -0.3227377    0.0000000    0.0000000 
H     0.7404549    4.2854721   -3.0148453 
O    -0.4577968   -0.1195369    5.2743402 
H    -0.8625024   -0.1195369    5.5894700 
H    -0.0530912   -0.1195369    5.5894700 
O     2.8493975    1.8869260    4.0439724 
H     2.4446919    1.8869260    4.3591021 
H     3.2541032    1.8869260    4.3591021 
O    -2.9056257   -3.0098759   -3.2367328 
H    -3.3103313   -3.0098759   -2.9216030 
H    -2.5009201   -3.0098759   -2.9216030 
O    -1.7432719    2.6642145   -4.2230310 
H    -2.1479775    2.6642145   -3.9079013 
H    -1.3385663    2.6642145   -3.9079013 
