15
Energy = -448.6944128205
O     0.3227377    0.0000000    0.0000000 
O    -0.3227377    0.0000000    0.0000000 
H     0.9384551    4.2058920   -3.0712555 
O    -0.3642339    2.1877562   -4.8008055 
H    -0.7689395    2.1877562   -4.4856758 
H     0.0404718    2.1877562   -4.4856758 
O    -1.4305715    4.7577332    1.8259271 
H    -1.8352771    4.7577332    2.1410568 
H    -1.0258659    4.7577332    2.1410568 
O    -2.6638612   -4.4521179   -1.0380250 
H    -3.0685668   -4.4521179   -0.7228953 
H    -2.2591556   -4.4521179   -0.7228953 
O     3.2273367   -1.8894299    3.7477181 
H     2.8226311   -1.8894299    4.0628478 
H     3.6320423   -1.8894299    4.0628478 
