15
Energy = -448.6768704849
O     0.3227377    0.0000000    0.0000000 
O    -0.3227377    0.0000000    0.0000000 
H    -2.5643864   -2.0478367   -1.7180445 
O     0.9044107    1.7381840    3.1473527 
H     0.4997050    1.7381840    3.4624825 
H     1.3091163    1.7381840    3.4624825 
O    -0.5876603    0.3521420   -3.6365708 
H    -0.9923659    0.3521420   -3.3214411 
H    -0.1829546    0.3521420   -3.3214411 
O    -2.5551020   -0.6613584   -2.5953601 
H    -2.9598076   -0.6613584   -2.2802303 
H    -2.1503964   -0.6613584   -2.2802303 
O    -2.1252748    2.1713302   -2.1151791 
H    -2.5299804    2.1713302   -1.8000494 
H    -1.7205692    2.1713302   -1.8000494 
