15
Energy = -448.5890055911
O     0.3227377    0.0000000    0.0000000 
O    -0.3227377    0.0000000    0.0000000 
H     1.6045353    4.6004676   -2.0649455 
O    -2.7692416   -2.5957094   -3.6835692 
H    -3.1739472   -2.5957094   -3.3684395 
H    -2.3645359   -2.5957094   -3.3684395 
O    -4.1439829   -1.8982641   -2.6845129 
H    -4.5486885   -1.8982641   -2.3693832 
H    -3.7392773   -1.8982641   -2.3693832 
O    -0.0842660    3.8776536   -3.5961713 
H    -0.4889716    3.8776536   -3.2810416 
H     0.3204396    3.8776536   -3.2810416 
O     2.2098745   -0.1158257   -4.8030926 
H     1.8051689   -0.1158257   -4.4879629 
H     2.6145801   -0.1158257   -4.4879629 
