15
Energy = -448.7030712567
O     0.3227377    0.0000000    0.0000000 
O    -0.3227377    0.0000000    0.0000000 
H     1.6169158    0.7951162    3.2364739 
O     0.3204932    2.3231307   -2.8635928 
H    -0.0842124    2.3231307   -2.5484630 
H     0.7251988    2.3231307   -2.5484630 
O    -2.8195010    0.0471437    2.4057597 
H    -3.2242066    0.0471437    2.7208895 
H    -2.4147954    0.0471437    2.7208895 
O     1.6207823    2.7531621    1.8784786 
H     1.2160767    2.7531621    2.1936084 
H     2.0254879    2.7531621    2.1936084 
O     2.2888391   -0.1565387   -2.9045170 
H     1.8841335   -0.1565387   -2.5893872 
H     2.6935447   -0.1565387   -2.5893872 
