15
Energy = -448.3472964090
O     0.3227377    0.0000000    0.0000000 
O    -0.3227377    0.0000000    0.0000000 
H    -1.6859002    1.8905153    2.7027915 
O    -2.5589237   -1.3767596    2.3011178 
H    -2.9636293   -1.3767596    2.6162475 
H    -2.1542181   -1.3767596    2.6162475 
O     3.2632593    0.0354071    1.7562697 
H     2.8585537    0.0354071    2.0713994 
H     3.6679650    0.0354071    2.0713994 
O    -2.3572599    2.0290106    2.0156868 
H    -2.7619655    2.0290106    2.3308166 
H    -1.9525542    2.0290106    2.3308166 
O    -1.0887547    1.5707373   -3.1693708 
H    -1.4934603    1.5707373   -2.8542410 
H    -0.6840490    1.5707373   -2.8542410 
