15
Energy = -448.5392406206
O     0.3227377    0.0000000    0.0000000 
O    -0.3227377    0.0000000    0.0000000 
H     0.6481640   -4.4388048    2.8070859 
O    -4.1380654   -1.4351660    2.9735370 
H    -4.5427710   -1.4351660    3.2886668 
H    -3.7333598   -1.4351660    3.2886668 
O    -3.9742230    0.1398228    3.4950160 
H    -4.3789286    0.1398228    3.8101458 
H    -3.5695173    0.1398228    3.8101458 
O     0.8267986    4.2044289    3.1089244 
H     0.4220929    4.2044289    3.4240541 
H     1.2315042    4.2044289    3.4240541 
O    -4.7698136   -0.8185346   -2.1367298 
H    -5.1745192   -0.8185346   -1.8216000 
H    -4.3651080   -0.8185346   -1.8216000 
