15
Energy = -448.3813748035
O     0.3227377    0.0000000    0.0000000 
O    -0.3227377    0.0000000    0.0000000 
H    -2.5158862    0.4305183   -4.6354942 
O    -2.3621006    2.1416027   -4.2196056 
H    -2.7668062    2.1416027   -3.9044759 
H    -1.9573950    2.1416027   -3.9044759 
O     4.0292533   -3.0863200    1.5012900 
H     3.6245476   -3.0863200    1.8164198 
H     4.4339589   -3.0863200    1.8164198 
O     2.3033060    3.3385739   -3.3949915 
H     1.8986004    3.3385739   -3.0798617 
H     2.7080117    3.3385739   -3.0798617 
O     3.5400372   -2.7064726    2.8578806 
H     3.1353316   -2.7064726    3.1730103 
H     3.9447428   -2.7064726    3.1730103 
