15
Energy = -448.7009224524
O     0.3227377    0.0000000    0.0000000 
O    -0.3227377    0.0000000    0.0000000 
H     1.1847686   -3.2842601    1.2374766 
O    -2.3628424   -2.2307655    1.7819801 
H    -2.7675480   -2.2307655    2.0971099 
H    -1.9581368   -2.2307655    2.0971099 
O    -1.2892897   -3.3965818   -0.7189760 
H    -1.6939953   -3.3965818   -0.4038462 
H    -0.8845841   -3.3965818   -0.4038462 
O     2.8894205    1.5294892   -1.7378731 
H     2.4847149    1.5294892   -1.4227433 
H     3.2941262    1.5294892   -1.4227433 
O     0.0524553   -1.8905717   -3.1812594 
H    -0.3522503   -1.8905717   -2.8661296 
H     0.4571609   -1.8905717   -2.8661296 
