15
Energy = -448.6960187056
O     0.3227377    0.0000000    0.0000000 
O    -0.3227377    0.0000000    0.0000000 
H     1.1599183    0.5883333    5.1294531 
O     1.6449730    2.1543210    4.5486298 
H     1.2402674    2.1543210    4.8637596 
H     2.0496786    2.1543210    4.8637596 
O     1.0516984   -3.8161890   -3.5081393 
H     0.6469928   -3.8161890   -3.1930095 
H     1.4564041   -3.8161890   -3.1930095 
O    -3.1181266    3.1408220    2.9046884 
H    -3.5228322    3.1408220    3.2198182 
H    -2.7134210    3.1408220    3.2198182 
O    -3.8830544    3.3415169   -1.3225045 
H    -4.2877600    3.3415169   -1.0073747 
H    -3.4783488    3.3415169   -1.0073747 
