15
Energy = -448.7130624716
O     0.3227377    0.0000000    0.0000000 
O    -0.3227377    0.0000000    0.0000000 
H    -3.4226608   -1.4158566    0.0461844 
O    -2.3229863   -1.5685063   -2.4179937 
H    -2.7276919   -1.5685063   -2.1028639 
H    -1.9182806   -1.5685063   -2.1028639 
O     3.0961918   -0.1232200    2.0334942 
H     2.6914862   -0.1232200    2.3486239 
H     3.5008974   -0.1232200    2.3486239 
O    -1.6676546   -3.2858656   -0.3749248 
H    -2.0723602   -3.2858656   -0.0597950 
H    -1.2629489   -3.2858656   -0.0597950 
O    -1.6583556    2.8442173    1.7013139 
H    -2.0630612    2.8442173    2.0164437 
H    -1.2536500    2.8442173    2.0164437 
