15
Energy = -448.7041159966
O     0.3227377    0.0000000    0.0000000 
O    -0.3227377    0.0000000    0.0000000 
H    -1.9888301    2.0969329    4.4328618 
O    -3.6006684    0.9108135    3.7731731 
H    -4.0053740    0.9108135    4.0883029 
H    -3.1959628    0.9108135    4.0883029 
O     3.1411211    3.1099579    2.9131212 
H     2.7364155    3.1099579    3.2282509 
H     3.5458267    3.1099579    3.2282509 
O    -0.4793820    3.7867381    3.6689580 
H    -0.8840876    3.7867381    3.9840877 
H    -0.0746764    3.7867381    3.9840877 
O     2.9310905   -4.0827995    1.6597514 
H     2.5263848   -4.0827995    1.9748812 
H     3.3357961   -4.0827995    1.9748812 
