15
Energy = -448.6590131639
O     0.3227377    0.0000000    0.0000000 
O    -0.3227377    0.0000000    0.0000000 
H     4.8273578    1.5056513    1.5596368 
O     1.1556164   -3.7147570   -3.5834304 
H     0.7509107   -3.7147570   -3.2683007 
H     1.5603220   -3.7147570   -3.2683007 
O     1.1384947    5.1588299    0.3089529 
H     0.7337891    5.1588299    0.6240827 
H     1.5432004    5.1588299    0.6240827 
O     4.3356022    1.6235602    2.5668567 
H     3.9308966    1.6235602    2.8819865 
H     4.7403078    1.6235602    2.8819865 
O    -5.0319486   -1.1572001   -1.1552078 
H    -5.4366543   -1.1572001   -0.8400781 
H    -4.6272430   -1.1572001   -0.8400781 
