15
Energy = -448.7132022171
O     0.3227377    0.0000000    0.0000000 
O    -0.3227377    0.0000000    0.0000000 
H    -2.6957241   -2.5129068    0.3738460 
O    -2.3237899    2.8191586   -0.6075745 
H    -2.7284955    2.8191586   -0.2924447 
H    -1.9190842    2.8191586   -0.2924447 
O     0.6059164   -2.6905557   -2.4691215 
H     0.2012108   -2.6905557   -2.1539917 
H     1.0106220   -2.6905557   -2.1539917 
O     2.1767122    1.4868818    2.6061665 
H     1.7720066    1.4868818    2.9212962 
H     2.5814178    1.4868818    2.9212962 
O     3.6713249   -0.0642469    0.4922679 
H     3.2666193   -0.0642469    0.8073977 
H     4.0760305   -0.0642469    0.8073977 
