15
Energy = -448.5967279113
O     0.3227377    0.0000000    0.0000000 
O    -0.3227377    0.0000000    0.0000000 
H    -0.8190284   -5.2231215   -0.2258994 
O    -1.5627633    4.3444776   -2.5819890 
H    -1.9674689    4.3444776   -2.2668593 
H    -1.1580577    4.3444776   -2.2668593 
O     2.1941596   -1.4122128    4.6074755 
H     1.7894540   -1.4122128    4.9226052 
H     2.5988652   -1.4122128    4.9226052 
O    -1.1805564    3.0984930    4.1278964 
H    -1.5852620    3.0984930    4.4430261 
H    -0.7758508    3.0984930    4.4430261 
O     3.6681719   -1.1195128    3.6498640 
H     3.2634663   -1.1195128    3.9649938 
H     4.0728775   -1.1195128    3.9649938 
