15
Energy = -448.6965840938
O     0.3227377    0.0000000    0.0000000 
O    -0.3227377    0.0000000    0.0000000 
H     2.6791252   -1.2907806   -2.2085206 
O    -1.9154195   -3.1609818   -0.2427149 
H    -2.3201251   -3.1609818    0.0724149 
H    -1.5107139   -3.1609818    0.0724149 
O    -0.1109664   -3.2915175   -1.6918146 
H    -0.5156720   -3.2915175   -1.3766849 
H     0.2937392   -3.2915175   -1.3766849 
O     1.2825389    2.1394287   -2.7347257 
H     0.8778333    2.1394287   -2.4195960 
H     1.6872445    2.1394287   -2.4195960 
O     2.2886853    0.0366322    2.9161462 
H     1.8839796    0.0366322    3.2312760 
H     2.6933909    0.0366322    3.2312760 
