15
Energy = -448.5804608293
O     0.3227377    0.0000000    0.0000000 
O    -0.3227377    0.0000000    0.0000000 
H    -2.0006813   -3.8278961    3.0573389 
O     4.6161238    2.3554471    1.0743280 
H     4.2114182    2.3554471    1.3894577 
H     5.0208294    2.3554471    1.3894577 
O     3.5599180    3.7324429    1.1864268 
H     3.1552124    3.7324429    1.5015566 
H     3.9646236    3.7324429    1.5015566 
O    -4.6156321   -1.8350188    1.8289993 
H    -5.0203377   -1.8350188    2.1441291 
H    -4.2109265   -1.8350188    2.1441291 
O     2.1315011    1.0278621    4.7369493 
H     1.7267955    1.0278621    5.0520791 
H     2.5362067    1.0278621    5.0520791 
