15
Energy = -448.7091689003
O     0.3227377    0.0000000    0.0000000 
O    -0.3227377    0.0000000    0.0000000 
H     2.0244462   -4.5443174   -1.8037831 
O    -1.3002767    5.1098407    0.4528134 
H    -1.7049823    5.1098407    0.7679431 
H    -0.8955711    5.1098407    0.7679431 
O     0.3781233    2.9568463    4.3760543 
H    -0.0265823    2.9568463    4.6911841 
H     0.7828289    2.9568463    4.6911841 
O    -0.8265199   -4.0178064    3.3469564 
H    -1.2312255   -4.0178064    3.6620862 
H    -0.4218143   -4.0178064    3.6620862 
O    -3.9463508   -1.1904788    3.3221845 
H    -4.3510564   -1.1904788    3.6373143 
H    -3.5416452   -1.1904788    3.6373143 
