15
Energy = -448.6936805785
O     0.3227377    0.0000000    0.0000000 
O    -0.3227377    0.0000000    0.0000000 
H    -0.9008318   -3.1230858   -1.7765773 
O    -1.4986466    0.7178650    3.3143713 
H    -1.9033522    0.7178650    3.6295011 
H    -1.0939410    0.7178650    3.6295011 
O     2.1503713    1.8945840   -2.3431153 
H     1.7456656    1.8945840   -2.0279855 
H     2.5550769    1.8945840   -2.0279855 
O     0.1239716    1.1534227   -3.5141379 
H    -0.2807340    1.1534227   -3.1990081 
H     0.5286772    1.1534227   -3.1990081 
O     2.3949357   -2.5207597    1.2810440 
H     1.9902301   -2.5207597    1.5961738 
H     2.7996414   -2.5207597    1.5961738 
