15
Energy = -448.6856262234
O     0.3227377    0.0000000    0.0000000 
O    -0.3227377    0.0000000    0.0000000 
H     2.9057127   -2.7640472    3.4524937 
O    -2.1250980   -0.4541141   -4.8212304 
H    -2.5298036   -0.4541141   -4.5061006 
H    -1.7203924   -0.4541141   -4.5061006 
O    -3.4274099    3.2085161   -2.4377764 
H    -3.8321156    3.2085161   -2.1226467 
H    -3.0227043    3.2085161   -2.1226467 
O    -3.3225647    3.8083183    1.5722386 
H    -3.7272703    3.8083183    1.8873684 
H    -2.9178591    3.8083183    1.8873684 
O     3.9225514   -3.0074979   -1.8860458 
H     3.5178458   -3.0074979   -1.5709161 
H     4.3272570   -3.0074979   -1.5709161 
