15
Energy = -448.6911128626
O     0.3227377    0.0000000    0.0000000 
O    -0.3227377    0.0000000    0.0000000 
H    -4.2621826    2.5881511   -1.7714709 
O     0.1245275    4.4690329   -2.8273261 
H    -0.2801781    4.4690329   -2.5121963 
H     0.5292331    4.4690329   -2.5121963 
O     3.1274837    0.5281093    4.2396566 
H     2.7227781    0.5281093    4.5547863 
H     3.5321893    0.5281093    4.5547863 
O    -3.5362929    0.1354763   -3.9305862 
H    -3.9409985    0.1354763   -3.6154564 
H    -3.1315873    0.1354763   -3.6154564 
O    -4.7623917   -2.3026402    0.1462755 
H    -5.1670973   -2.3026402    0.4614053 
H    -4.3576861   -2.3026402    0.4614053 
