15
Energy = -448.5503365318
O     0.3227377    0.0000000    0.0000000 
O    -0.3227377    0.0000000    0.0000000 
H    -3.6556542   -3.6159741    1.2505040 
O    -1.5842537   -4.9891080   -0.7719789 
H    -1.9889594   -4.9891080   -0.4568492 
H    -1.1795481   -4.9891080   -0.4568492 
O     3.7197662    2.6896998   -2.6290460 
H     3.3150605    2.6896998   -2.3139163 
H     4.1244718    2.6896998   -2.3139163 
O     2.3046927    3.4508322   -3.2799811 
H     1.8999870    3.4508322   -2.9648514 
H     2.7093983    3.4508322   -2.9648514 
O     3.0861558   -0.9786607   -4.1820093 
H     2.6814502   -0.9786607   -3.8668795 
H     3.4908614   -0.9786607   -3.8668795 
