15
Energy = -448.6984927320
O     0.3227377    0.0000000    0.0000000 
O    -0.3227377    0.0000000    0.0000000 
H     2.4782739    2.1727971   -4.1400420 
O     2.2364672    1.2286978    4.6396411 
H     1.8317616    1.2286978    4.9547708 
H     2.6411729    1.2286978    4.9547708 
O    -0.2384307    5.2368862   -0.7180453 
H    -0.6431363    5.2368862   -0.4029156 
H     0.1662749    5.2368862   -0.4029156 
O     4.3164266    0.0322665   -3.0573229 
H     3.9117210    0.0322665   -2.7421932 
H     4.7211322    0.0322665   -2.7421932 
O    -2.3430657   -4.0572403    2.4637807 
H    -2.7477713   -4.0572403    2.7789105 
H    -1.9383601   -4.0572403    2.7789105 
