15
Energy = -448.6807311890
O     0.3227377    0.0000000    0.0000000 
O    -0.3227377    0.0000000    0.0000000 
H     0.3280537   -4.8984594    1.9749209 
O    -1.3878040   -5.0283738   -0.8863442 
H    -1.7925097   -5.0283738   -0.5712145 
H    -0.9830984   -5.0283738   -0.5712145 
O    -5.2013579    0.6913783   -0.6823171 
H    -5.6060635    0.6913783   -0.3671873 
H    -4.7966523    0.6913783   -0.3671873 
O    -0.6631336    4.1234449   -3.2458959 
H    -1.0678392    4.1234449   -2.9307661 
H    -0.2584279    4.1234449   -2.9307661 
O    -5.0955983   -0.0444808    1.4305566 
H    -5.5003039   -0.0444808    1.7456864 
H    -4.6908926   -0.0444808    1.7456864 
