15
Energy = -448.6747604665
O     0.3227377    0.0000000    0.0000000 
O    -0.3227377    0.0000000    0.0000000 
H    -1.9232236   -3.0269743    3.8912046 
O    -0.2664463   -3.5827979    3.8890446 
H    -0.6711519   -3.5827979    4.2041743 
H     0.1382594   -3.5827979    4.2041743 
O     3.8934014   -1.8631290   -3.0577731 
H     3.4886957   -1.8631290   -2.7426433 
H     4.2981070   -1.8631290   -2.7426433 
O     0.8608248    0.2538635   -5.2113453 
H     0.4561192    0.2538635   -4.8962156 
H     1.2655304    0.2538635   -4.8962156 
O    -2.4741795    2.6120189    3.8843094 
H    -2.8788851    2.6120189    4.1994392 
H    -2.0694739    2.6120189    4.1994392 
