15
Energy = -448.6765775433
O     0.3227377    0.0000000    0.0000000 
O    -0.3227377    0.0000000    0.0000000 
H     2.5503819    3.6517611   -2.8571015 
O    -1.7020293    4.3634177   -2.4592659 
H    -2.1067349    4.3634177   -2.1441362 
H    -1.2973236    4.3634177   -2.1441362 
O    -5.2575597    0.3821532   -0.4597668 
H    -5.6622653    0.3821532   -0.1446370 
H    -4.8528541    0.3821532   -0.1446370 
O    -5.0297102   -1.1274747    1.2011168 
H    -5.4344158   -1.1274747    1.5162465 
H    -4.6250045   -1.1274747    1.5162465 
O     4.0489423   -3.4071786   -0.0022804 
H     3.6442366   -3.4071786    0.3128494 
H     4.4536479   -3.4071786    0.3128494 
