15
Energy = -448.6759045237
O     0.3227377    0.0000000    0.0000000 
O    -0.3227377    0.0000000    0.0000000 
H    -0.1655054    3.6550852   -3.8230611 
O    -1.1323967    4.2544120    2.9398320 
H    -1.5371023    4.2544120    3.2549617 
H    -0.7276911    4.2544120    3.2549617 
O    -5.1347262   -0.5197648   -1.1655377 
H    -5.5394318   -0.5197648   -0.8504080 
H    -4.7300206   -0.5197648   -0.8504080 
O     1.2844489    2.6702910   -4.3805910 
H     0.8797432    2.6702910   -4.0654613 
H     1.6891545    2.6702910   -4.0654613 
O    -3.1275506   -0.5643974   -4.2273960 
H    -3.5322562   -0.5643974   -3.9122663 
H    -2.7228449   -0.5643974   -3.9122663 
