15
Energy = -448.7012711515
O     0.3227377    0.0000000    0.0000000 
O    -0.3227377    0.0000000    0.0000000 
H     3.2863126    1.7315109   -3.7689329 
O    -1.7539603    2.0247240    4.5674200 
H    -2.1586659    2.0247240    4.8825498 
H    -1.3492547    2.0247240    4.8825498 
O     4.8711671   -2.0056355    0.5057539 
H     4.4664615   -2.0056355    0.8208837 
H     5.2758727   -2.0056355    0.8208837 
O    -0.4999386   -4.6345718    2.5084883 
H    -0.9046442   -4.6345718    2.8236181 
H    -0.0952330   -4.6345718    2.8236181 
O     3.8462635    3.5191544   -0.9043355 
H     3.4415579    3.5191544   -0.5892058 
H     4.2509691    3.5191544   -0.5892058 
