15
Energy = -448.6474047883
O     0.3227377    0.0000000    0.0000000 
O    -0.3227377    0.0000000    0.0000000 
H     4.4241095   -2.8203486   -0.6897282 
O     2.9583864   -3.3568520   -2.8215375 
H     2.5536807   -3.3568520   -2.5064077 
H     3.3630920   -3.3568520   -2.5064077 
O     2.8504969   -4.0985491    1.7585860 
H     2.4457913   -4.0985491    2.0737157 
H     3.2552026   -4.0985491    2.0737157 
O     4.9546770    1.8432843    0.2410712 
H     4.5499714    1.8432843    0.5562010 
H     5.3593826    1.8432843    0.5562010 
O     3.7913602   -3.6764654   -0.3309392 
H     3.3866545   -3.6764654   -0.0158095 
H     4.1960658   -3.6764654   -0.0158095 
