15
Energy = -448.6447172035
O     0.3227377    0.0000000    0.0000000 
O    -0.3227377    0.0000000    0.0000000 
H    -4.0278719    2.4279876   -2.4256876 
O    -4.9426839   -1.5170362   -1.1237610 
H    -5.3473895   -1.5170362   -0.8086312 
H    -4.5379782   -1.5170362   -0.8086312 
O    -2.7334912    2.9335665   -3.4495021 
H    -3.1381968    2.9335665   -3.1343723 
H    -2.3287856    2.9335665   -3.1343723 
O     3.5930312   -2.2605242   -3.1558230 
H     3.1883256   -2.2605242   -2.8406933 
H     3.9977368   -2.2605242   -2.8406933 
O     2.0059043   -4.0128093   -2.8027540 
H     1.6011987   -4.0128093   -2.4876242 
H     2.4106099   -4.0128093   -2.4876242 
