15
Energy = -448.7173534439
O     0.3227377    0.0000000    0.0000000 
O    -0.3227377    0.0000000    0.0000000 
H     1.7903097   -2.9084366   -1.4342864 
O    -2.4111171    2.5902836    1.0984493 
H    -2.8158227    2.5902836    1.4135790 
H    -2.0064115    2.5902836    1.4135790 
O    -2.0628860   -1.8651302    2.4506361 
H    -2.4675916   -1.8651302    2.7657658 
H    -1.6581803   -1.8651302    2.7657658 
O     1.0402364    3.1548678    1.6426991 
H     0.6355308    3.1548678    1.9578289 
H     1.4449420    3.1548678    1.9578289 
O     0.1011127    1.3443439   -3.4464392 
H    -0.3035929    1.3443439   -3.1313094 
H     0.5058183    1.3443439   -3.1313094 
