15
Energy = -448.6449007735
O     0.3227377    0.0000000    0.0000000 
O    -0.3227377    0.0000000    0.0000000 
H    -3.3178042   -3.1220179    2.6922140 
O     2.0666409    3.7604906    3.1006244 
H     1.6619353    3.7604906    3.4157542 
H     2.4713465    3.7604906    3.4157542 
O     2.8892743    2.1255067    3.8944137 
H     2.4845687    2.1255067    4.2095435 
H     3.2939799    2.1255067    4.2095435 
O     1.4372235    0.7403937    5.0425185 
H     1.0325179    0.7403937    5.3576482 
H     1.8419291    0.7403937    5.3576482 
O    -2.8418998   -3.7945175   -2.3474221 
H    -3.2466054   -3.7945175   -2.0322924 
H    -2.4371942   -3.7945175   -2.0322924 
