15
Energy = -448.6798860705
O     0.3227377    0.0000000    0.0000000 
O    -0.3227377    0.0000000    0.0000000 
H     3.1279465   -4.2178482    0.6546324 
O     4.1238092   -1.4413195    2.9903397 
H     3.7191036   -1.4413195    3.3054695 
H     4.5285148   -1.4413195    3.3054695 
O    -4.1310160    1.7442463   -2.8060660 
H    -4.5357217    1.7442463   -2.4909363 
H    -3.7263104    1.7442463   -2.4909363 
O     1.2519111   -3.2253929   -4.0002829 
H     0.8472055   -3.2253929   -3.6851531 
H     1.6566167   -3.2253929   -3.6851531 
O    -2.2932085    1.3262866   -4.5771737 
H    -2.6979141    1.3262866   -4.2620440 
H    -1.8885029    1.3262866   -4.2620440 
