15
Energy = -448.6472886710
O     0.3227377    0.0000000    0.0000000 
O    -0.3227377    0.0000000    0.0000000 
H    -2.6685960    4.1658299   -1.8781089 
O    -4.0358552   -1.2942694   -3.1647645 
H    -4.4405608   -1.2942694   -2.8496347 
H    -3.6311496   -1.2942694   -2.8496347 
O     3.2258865   -3.4470956   -2.3866381 
H     2.8211809   -3.4470956   -2.0715083 
H     3.6305921   -3.4470956   -2.0715083 
O    -3.1351848   -3.1234489   -2.8975316 
H    -3.5398905   -3.1234489   -2.5824019 
H    -2.7304792   -3.1234489   -2.5824019 
O    -0.4114472   -1.0508629    5.1737968 
H    -0.8161529   -1.0508629    5.4889266 
H    -0.0067416   -1.0508629    5.4889266 
