15
Energy = -448.7083722455
O     0.3227377    0.0000000    0.0000000 
O    -0.3227377    0.0000000    0.0000000 
H     2.2441061   -1.8760199    2.2728675 
O    -2.3838019    2.5453134   -1.2453384 
H    -2.7885075    2.5453134   -0.9302086 
H    -1.9790963    2.5453134   -0.9302086 
O     2.4445284   -2.3869752   -1.4273262 
H     2.0398227   -2.3869752   -1.1121964 
H     2.8492340   -2.3869752   -1.1121964 
O    -0.4687095    3.5925871    0.7751393 
H    -0.8734151    3.5925871    1.0902690 
H    -0.0640038    3.5925871    1.0902690 
O    -3.4315223   -1.3949896   -0.0031963 
H    -3.8362279   -1.3949896    0.3119334 
H    -3.0268167   -1.3949896    0.3119334 
