15
Energy = -448.6834369886
O     0.3227377    0.0000000    0.0000000 
O    -0.3227377    0.0000000    0.0000000 
H    -2.4247164   -2.1116959    4.2028950 
O     3.8411171   -3.3185057   -1.4916202 
H     3.4364115   -3.3185057   -1.1764904 
H     4.2458227   -3.3185057   -1.1764904 
O     3.7506551    2.0102085   -3.1417855 
H     3.3459494    2.0102085   -2.8266558 
H     4.1553607    2.0102085   -2.8266558 
O    -4.2073918   -1.8593285    2.6197897 
H    -4.6120974   -1.8593285    2.9349194 
H    -3.8026862   -1.8593285    2.9349194 
O    -3.7990143    1.4608272   -3.3779970 
H    -4.2037199    1.4608272   -3.0628672 
H    -3.3943086    1.4608272   -3.0628672 
