15
Energy = -448.6875680742
O     0.3227377    0.0000000    0.0000000 
O    -0.3227377    0.0000000    0.0000000 
H    -4.3795764    2.2498231    1.9391861 
O    -4.0712368    3.3422747    0.5107814 
H    -4.4759425    3.3422747    0.8259112 
H    -3.6665312    3.3422747    0.8259112 
O    -5.0270034   -1.6476734   -0.1275581 
H    -5.4317090   -1.6476734    0.1875716 
H    -4.6222978   -1.6476734    0.1875716 
O    -2.9431274   -0.4766950   -4.3681458 
H    -3.3478330   -0.4766950   -4.0530160 
H    -2.5384218   -0.4766950   -4.0530160 
O     2.4362531    3.9203829    2.5918341 
H     2.0315475    3.9203829    2.9069639 
H     2.8409588    3.9203829    2.9069639 
