15
Energy = -448.4366193128
O     0.3227377    0.0000000    0.0000000 
O    -0.3227377    0.0000000    0.0000000 
H    -2.0640964   -2.8771230    1.0876850 
O     2.2111354   -2.1991285   -1.9952613 
H     1.8064298   -2.1991285   -1.6801315 
H     2.6158411   -2.1991285   -1.6801315 
O     0.7937098   -2.8455093    2.2386003 
H     0.3890042   -2.8455093    2.5537301 
H     1.1984154   -2.8455093    2.5537301 
O     2.9266447   -1.2655993    1.8890757 
H     2.5219391   -1.2655993    2.2042055 
H     3.3313503   -1.2655993    2.2042055 
O     3.2238493   -1.4029132   -1.1624346 
H     2.8191436   -1.4029132   -0.8473049 
H     3.6285549   -1.4029132   -0.8473049 
