15
Energy = -448.4842767061
O     0.3227377    0.0000000    0.0000000 
O    -0.3227377    0.0000000    0.0000000 
H     3.2637588    0.0689223    4.1648487 
O     3.9462189    3.4898990   -0.4970330 
H     3.5415132    3.4898990   -0.1819032 
H     4.3509245    3.4898990   -0.1819032 
O     3.0832550   -2.1593064   -3.7156133 
H     2.6785494   -2.1593064   -3.4004835 
H     3.4879606   -2.1593064   -3.4004835 
O     2.2562452    3.5368594   -3.2215758 
H     1.8515396    3.5368594   -2.9064460 
H     2.6609508    3.5368594   -2.9064460 
O     2.7955783    4.2717617   -1.3889415 
H     2.3908727    4.2717617   -1.0738117 
H     3.2002839    4.2717617   -1.0738117 
