15
Energy = -448.7011846143
O     0.3227377    0.0000000    0.0000000 
O    -0.3227377    0.0000000    0.0000000 
H     1.3816338   -4.8720583    1.5352431 
O     1.1678107    1.7023380    4.8762484 
H     0.7631050    1.7023380    5.1913782 
H     1.5725163    1.7023380    5.1913782 
O    -3.0317030    4.2860561    0.6680960 
H    -3.4364086    4.2860561    0.9832257 
H    -2.6269974    4.2860561    0.9832257 
O     3.5778181    3.3206546   -2.0395922 
H     3.1731125    3.3206546   -1.7244625 
H     3.9825237    3.3206546   -1.7244625 
O    -4.0978845   -2.4254413    2.3118835 
H    -4.5025901   -2.4254413    2.6270133 
H    -3.6931788   -2.4254413    2.6270133 
