15
Energy = -448.6841939509
O     0.3227377    0.0000000    0.0000000 
O    -0.3227377    0.0000000    0.0000000 
H     0.6113213    1.6123820    3.2783990 
O    -2.0095543    2.8041090    1.3528582 
H    -2.4142599    2.8041090    1.6679879 
H    -1.6048486    2.8041090    1.6679879 
O     2.0881008   -2.9363353    0.8635085 
H     1.6833952   -2.9363353    1.1786382 
H     2.4928064   -2.9363353    1.1786382 
O     2.1902667    1.1125959    2.7761735 
H     1.7855611    1.1125959    3.0913032 
H     2.5949723    1.1125959    3.0913032 
O    -0.1398533    0.8410809   -3.6010120 
H    -0.5445589    0.8410809   -3.2858823 
H     0.2648523    0.8410809   -3.2858823 
