15
Energy = -448.7016805324
O     0.3227377    0.0000000    0.0000000 
O    -0.3227377    0.0000000    0.0000000 
H     4.4220321   -2.6679975   -1.1533682 
O     0.9042889    3.8112490    3.5617805 
H     0.4995833    3.8112490    3.8769103 
H     1.3089945    3.8112490    3.8769103 
O    -0.6609763    5.1923309   -0.7744680 
H    -1.0656819    5.1923309   -0.4593383 
H    -0.2562707    5.1923309   -0.4593383 
O     2.7244043   -3.9264471    2.2760917 
H     2.3196986   -3.9264471    2.5912214 
H     3.1291099   -3.9264471    2.5912214 
O    -5.2705333    0.3559233    0.3162277 
H    -5.6752389    0.3559233    0.6313574 
H    -4.8658277    0.3559233    0.6313574 
