15
Energy = -448.4030533687
O     0.3227377    0.0000000    0.0000000 
O    -0.3227377    0.0000000    0.0000000 
H    -3.5498138    3.2718828    2.1671273 
O    -4.1044774    2.7331812    1.9236139 
H    -4.5091830    2.7331812    2.2387436 
H    -3.6997718    2.7331812    2.2387436 
O    -4.8112229    0.1872140   -2.1916675 
H    -5.2159285    0.1872140   -1.8765378 
H    -4.4065172    0.1872140   -1.8765378 
O     3.5553844    2.4399594    3.0711210 
H     3.1506788    2.4399594    3.3862508 
H     3.9600900    2.4399594    3.3862508 
O     2.7823388    3.1608691   -3.2009716 
H     2.3776332    3.1608691   -2.8858419 
H     3.1870445    3.1608691   -2.8858419 
