15
Energy = -448.6861874631
O     0.3227377    0.0000000    0.0000000 
O    -0.3227377    0.0000000    0.0000000 
H     1.5248398   -2.7283894   -4.2700809 
O     3.9105959    1.3169476   -3.3091987 
H     3.5058903    1.3169476   -2.9940689 
H     4.3153015    1.3169476   -2.9940689 
O    -2.5537242   -4.5353410    0.9587572 
H    -2.9584298   -4.5353410    1.2738869 
H    -2.1490186   -4.5353410    1.2738869 
O    -4.2670897   -0.6274738   -3.0623500 
H    -4.6717953   -0.6274738   -2.7472203 
H    -3.8623841   -0.6274738   -2.7472203 
O     5.2146051   -0.8281261    0.3572292 
H     4.8098994   -0.8281261    0.6723590 
H     5.6193107   -0.8281261    0.6723590 
