15
Energy = -448.6935665582
O     0.3227377    0.0000000    0.0000000 
O    -0.3227377    0.0000000    0.0000000 
H    -3.4518097    3.1256997    2.5135329 
O    -5.0237557   -1.6181257   -0.3788374 
H    -5.4284613   -1.6181257   -0.0637076 
H    -4.6190501   -1.6181257   -0.0637076 
O    -4.1199398    1.9399848   -2.6916746 
H    -4.5246454    1.9399848   -2.3765448 
H    -3.7152341    1.9399848   -2.3765448 
O     4.2547120   -2.9698840   -1.0354902 
H     3.8500064   -2.9698840   -0.7203605 
H     4.6594177   -2.9698840   -0.7203605 
O     1.5987217    2.1399101    4.5718833 
H     1.1940161    2.1399101    4.8870131 
H     2.0034273    2.1399101    4.8870131 
