15
Energy = -448.6682047439
O     0.3227377    0.0000000    0.0000000 
O    -0.3227377    0.0000000    0.0000000 
H    -3.6386249   -3.1315180   -2.2263961 
O    -3.4064435    2.8875043    2.8430070 
H    -3.8111491    2.8875043    3.1581367 
H    -3.0017379    2.8875043    3.1581367 
O     2.3632775    2.3207917   -4.1231813 
H     1.9585719    2.3207917   -3.8080516 
H     2.7679831    2.3207917   -3.8080516 
O     0.4771268    1.6408993   -5.0044923 
H     0.0724212    1.6408993   -4.6893625 
H     0.8818324    1.6408993   -4.6893625 
O     3.1698202   -3.5936381    2.2489463 
H     2.7651146   -3.5936381    2.5640760 
H     3.5745258   -3.5936381    2.5640760 
