15
Energy = -448.6495628723
O     0.3227377    0.0000000    0.0000000 
O    -0.3227377    0.0000000    0.0000000 
H     3.4190098   -3.2211167    2.4367222 
O     0.8581639   -3.9731667    3.3920291 
H     0.4534582   -3.9731667    3.7071588 
H     1.2628695   -3.9731667    3.7071588 
O    -0.6782471   -3.1327234    4.2143299 
H    -1.0829527   -3.1327234    4.5294596 
H    -0.2735415   -3.1327234    4.5294596 
O     1.9143405    2.1818783    4.4284163 
H     1.5096348    2.1818783    4.7435461 
H     2.3190461    2.1818783    4.7435461 
O    -1.1472975   -4.5196690   -2.4980623 
H    -1.5520031   -4.5196690   -2.1829325 
H    -0.7425919   -4.5196690   -2.1829325 
