15
Energy = -448.4715805609
O     0.3227377    0.0000000    0.0000000 
O    -0.3227377    0.0000000    0.0000000 
H    -2.2379507   -0.8912313   -2.8140137 
O    -1.4853304   -0.3118616   -3.3752777 
H    -1.8900360   -0.3118616   -3.0601479 
H    -1.0806248   -0.3118616   -3.0601479 
O     1.6944961   -0.9252830    3.1650813 
H     1.2897905   -0.9252830    3.4802110 
H     2.0992018   -0.9252830    3.4802110 
O     2.5663686    2.6419112    0.3980325 
H     2.1616629    2.6419112    0.7131623 
H     2.9710742    2.6419112    0.7131623 
O     1.6016015    0.8927181    3.2223537 
H     1.1968959    0.8927181    3.5374835 
H     2.0063071    0.8927181    3.5374835 
