15
Energy = -448.6857965506
O     0.3227377    0.0000000    0.0000000 
O    -0.3227377    0.0000000    0.0000000 
H     4.3316634   -2.2240554    2.0719812 
O    -4.6043208    2.5681780   -0.4517883 
H    -5.0090264    2.5681780   -0.1366585 
H    -4.1996151    2.5681780   -0.1366585 
O     3.3145675    3.5223349   -2.1432418 
H     2.9098619    3.5223349   -1.8281120 
H     3.7192731    3.5223349   -1.8281120 
O    -1.3502039   -0.5034162   -5.0880287 
H    -1.7549095   -0.5034162   -4.7728989 
H    -0.9454983   -0.5034162   -4.7728989 
O    -3.1184505   -2.4251230    3.5246849 
H    -3.5231561   -2.4251230    3.8398147 
H    -2.7137449   -2.4251230    3.8398147 
