15
Energy = -448.6032183107
O     0.3227377    0.0000000    0.0000000 
O    -0.3227377    0.0000000    0.0000000 
H     2.7057978    3.9503427   -2.2530616 
O    -2.4367698   -1.5676731    4.4317877 
H    -2.8414754   -1.5676731    4.7469175 
H    -2.0320642   -1.5676731    4.7469175 
O     3.9677156   -1.5020798   -3.1591180 
H     3.5630100   -1.5020798   -2.8439882 
H     4.3724212   -1.5020798   -2.8439882 
O     3.6387439   -3.7400110    0.8839329 
H     3.2340383   -3.7400110    1.1990627 
H     4.0434495   -3.7400110    1.1990627 
O     2.7389715   -2.7773733   -3.5721366 
H     2.3342659   -2.7773733   -3.2570069 
H     3.1436772   -2.7773733   -3.2570069 
