15
Energy = -448.6251484750
O     0.3227377    0.0000000    0.0000000 
O    -0.3227377    0.0000000    0.0000000 
H    -2.5362563    1.8286211   -1.9861869 
O    -3.3477718   -0.4528783    1.5232100 
H    -3.7524774   -0.4528783    1.8383398 
H    -2.9430662   -0.4528783    1.8383398 
O    -0.9844749    2.3792654   -2.6591841 
H    -1.3891806    2.3792654   -2.3440543 
H    -0.5797693    2.3792654   -2.3440543 
O    -1.6250002    0.6121834   -3.2682373 
H    -2.0297058    0.6121834   -2.9531075 
H    -1.2202946    0.6121834   -2.9531075 
O     2.0741130    1.7574996    2.5198408 
H     1.6694074    1.7574996    2.8349705 
H     2.4788186    1.7574996    2.8349705 
