15
Energy = -448.6728045459
O     0.3227377    0.0000000    0.0000000 
O    -0.3227377    0.0000000    0.0000000 
H    -2.4301318    2.3562016    4.0676295 
O     4.3103536    0.2633277   -3.0547232 
H     3.9056480    0.2633277   -2.7395934 
H     4.7150592    0.2633277   -2.7395934 
O     4.4628638   -1.9265155   -2.0876994 
H     4.0581582   -1.9265155   -1.7725696 
H     4.8675694   -1.9265155   -1.7725696 
O     2.8484141   -4.0686538    1.8300804 
H     2.4437085   -4.0686538    2.1452102 
H     3.2531197   -4.0686538    2.1452102 
O     2.9167428   -4.1423137   -1.5248575 
H     2.5120372   -4.1423137   -1.2097277 
H     3.3214484   -4.1423137   -1.2097277 
