15
Energy = -448.4798994329
O     0.3227377    0.0000000    0.0000000 
O    -0.3227377    0.0000000    0.0000000 
H     4.6289002   -1.7949531    1.8314645 
O    -2.5593891   -4.6201993   -0.3219987 
H    -2.9640947   -4.6201993   -0.0068689 
H    -2.1546835   -4.6201993   -0.0068689 
O    -4.9511464   -0.2221126    1.8583941 
H    -5.3558520   -0.2221126    2.1735239 
H    -4.5464408   -0.2221126    2.1735239 
O    -5.2787685   -0.2009419    0.3153122 
H    -5.6834741   -0.2009419    0.6304419 
H    -4.8740628   -0.2009419    0.6304419 
O     3.9413048    1.1136767   -3.3471573 
H     3.5365992    1.1136767   -3.0320276 
H     4.3460104    1.1136767   -3.0320276 
