15
Energy = -448.6970074875
O     0.3227377    0.0000000    0.0000000 
O    -0.3227377    0.0000000    0.0000000 
H    -2.8765333    3.9668875   -1.9980480 
O    -0.9056085   -2.3910738    4.6368493 
H    -1.3103141   -2.3910738    4.9519791 
H    -0.5009029   -2.3910738    4.9519791 
O     4.1153391   -2.8213479   -1.7588518 
H     3.7106335   -2.8213479   -1.4437220 
H     4.5200447   -2.8213479   -1.4437220 
O     2.8709818    2.6492914    3.5732959 
H     2.4662761    2.6492914    3.8884257 
H     3.2756874    2.6492914    3.8884257 
O    -1.7840388    3.1066970   -3.8909082 
H    -2.1887444    3.1066970   -3.5757784 
H    -1.3793332    3.1066970   -3.5757784 
