15
Energy = -448.7245700164
O     0.3227377    0.0000000    0.0000000 
O    -0.3227377    0.0000000    0.0000000 
H    -1.4999704    3.3511797   -0.4909916 
O    -2.0217703    0.2659615    3.0961905 
H    -2.4264760    0.2659615    3.4113203 
H    -1.6170647    0.2659615    3.4113203 
O     2.5335848    2.3545933    1.3297466 
H     2.1288791    2.3545933    1.6448763 
H     2.9382904    2.3545933    1.6448763 
O     1.1820855    2.5013126   -2.4594649 
H     0.7773799    2.5013126   -2.1443351 
H     1.5867911    2.5013126   -2.1443351 
O     0.4041863   -3.6381048    0.5714057 
H    -0.0005194   -3.6381048    0.8865354 
H     0.8088919   -3.6381048    0.8865354 
