15
Energy = -448.6652775733
O     0.3227377    0.0000000    0.0000000 
O    -0.3227377    0.0000000    0.0000000 
H    -1.6314830    2.7863615   -1.8154456 
O    -2.4323901    1.6292868   -2.2656611 
H    -2.8370957    1.6292868   -1.9505314 
H    -2.0276845    1.6292868   -1.9505314 
O     0.7874990    0.4918840   -3.5822201 
H     0.3827934    0.4918840   -3.2670903 
H     1.1922046    0.4918840   -3.2670903 
O    -0.2047838   -2.2326381   -2.9449268 
H    -0.6094895   -2.2326381   -2.6297971 
H     0.1999218   -2.2326381   -2.6297971 
O     1.3649702    2.9499354    1.7803137 
H     0.9602646    2.9499354    2.0954435 
H     1.7696758    2.9499354    2.0954435 
