15
Energy = -448.6772568408
O     0.3227377    0.0000000    0.0000000 
O    -0.3227377    0.0000000    0.0000000 
H     5.2111010   -0.9173343    0.0758934 
O    -3.6632099   -0.1569695   -3.8118731 
H    -4.0679155   -0.1569695   -3.4967433 
H    -3.2585043   -0.1569695   -3.4967433 
O    -2.2394972   -3.5418960   -3.2277153 
H    -2.6442028   -3.5418960   -2.9125855 
H    -1.8347916   -3.5418960   -2.9125855 
O     3.0539558   -3.2098548   -2.8898530 
H     2.6492502   -3.2098548   -2.5747232 
H     3.4586614   -3.2098548   -2.5747232 
O     1.0870764    4.9313890   -1.5781658 
H     0.6823708    4.9313890   -1.2630360 
H     1.4917820    4.9313890   -1.2630360 
