15
Energy = -448.7193201147
O     0.3227377    0.0000000    0.0000000 
O    -0.3227377    0.0000000    0.0000000 
H     2.7247489   -2.0818849   -1.4010312 
O    -1.6193133    2.4362916    2.2761415 
H    -2.0240189    2.4362916    2.5912713 
H    -1.2146077    2.4362916    2.5912713 
O     2.8184080   -0.0505745    2.4069723 
H     2.4137024   -0.0505745    2.7221021 
H     3.2231137   -0.0505745    2.7221021 
O     1.5150002    2.5735312    2.1953623 
H     1.1102945    2.5735312    2.5104921 
H     1.9197058    2.5735312    2.5104921 
O    -2.4257656    1.4098804   -2.4147657 
H    -2.8304713    1.4098804   -2.0996359 
H    -2.0210600    1.4098804   -2.0996359 
