15
Energy = -448.6880338823
O     0.3227377    0.0000000    0.0000000 
O    -0.3227377    0.0000000    0.0000000 
H     0.6074742    4.1955688   -3.1671775 
O    -2.3850001   -0.6284527   -4.6780790 
H    -2.7897057   -0.6284527   -4.3629492 
H    -1.9802944   -0.6284527   -4.3629492 
O    -2.1029228    4.7879071   -0.8064806 
H    -2.5076284    4.7879071   -0.4913508 
H    -1.6982172    4.7879071   -0.4913508 
O     3.5344360    0.4986786    3.9104149 
H     3.1297304    0.4986786    4.2255447 
H     3.9391416    0.4986786    4.2255447 
O     3.4391986   -2.2362160    3.3465308 
H     3.0344930   -2.2362160    3.6616606 
H     3.8439042   -2.2362160    3.6616606 
