15
Energy = -448.6845536255
O     0.3227377    0.0000000    0.0000000 
O    -0.3227377    0.0000000    0.0000000 
H     2.0566769    3.3923629    3.5021122 
O     5.1639926   -1.0848637    0.4026222 
H     4.7592870   -1.0848637    0.7177519 
H     5.5686982   -1.0848637    0.7177519 
O     1.4214850    5.0597595   -0.6135283 
H     1.0167794    5.0597595   -0.2983986 
H     1.8261906    5.0597595   -0.2983986 
O    -1.4987097   -3.4053404   -3.7592612 
H    -1.9034153   -3.4053404   -3.4441314 
H    -1.0940041   -3.4053404   -3.4441314 
O    -4.1637891   -2.2494968   -2.3638209 
H    -4.5684947   -2.2494968   -2.0486912 
H    -3.7590835   -2.2494968   -2.0486912 
