15
Energy = -448.6916724263
O     0.3227377    0.0000000    0.0000000 
O    -0.3227377    0.0000000    0.0000000 
H     1.3002319    3.0197595   -4.1464787 
O     3.0690917    3.5337893   -2.4652121 
H     2.6643861    3.5337893   -2.1500823 
H     3.4737973    3.5337893   -2.1500823 
O     2.9374780   -4.0246053    1.7860695 
H     2.5327724   -4.0246053    2.1011993 
H     3.3421836   -4.0246053    2.1011993 
O    -1.2443937    4.3682261    2.7190768 
H    -1.6490993    4.3682261    3.0342065 
H    -0.8396881    4.3682261    3.0342065 
O    -4.2930977    0.7039194   -3.0089827 
H    -4.6978033    0.7039194   -2.6938530 
H    -3.8883921    0.7039194   -2.6938530 
