15
Energy = -448.6798738765
O     0.3227377    0.0000000    0.0000000 
O    -0.3227377    0.0000000    0.0000000 
H     3.0535676   -1.3787116   -4.0960609 
O    -4.6227991    1.6882755   -1.9410466 
H    -5.0275047    1.6882755   -1.6259169 
H    -4.2180935    1.6882755   -1.6259169 
O     4.6732535    2.3244302   -0.8683379 
H     4.2685478    2.3244302   -0.5532082 
H     5.0779591    2.3244302   -0.5532082 
O    -0.9647950   -0.7417013   -5.1461759 
H    -1.3695006   -0.7417013   -4.8310462 
H    -0.5600893   -0.7417013   -4.8310462 
O    -4.5115948   -2.5801769   -0.9917436 
H    -4.9163004   -2.5801769   -0.6766138 
H    -4.1068891   -2.5801769   -0.6766138 
