15
Energy = -448.6904869729
O     0.3227377    0.0000000    0.0000000 
O    -0.3227377    0.0000000    0.0000000 
H     0.6900778    4.3474252    2.9370943 
O    -1.4171145   -1.7465496   -4.7862446 
H    -1.8218202   -1.7465496   -4.4711148 
H    -1.0124089   -1.7465496   -4.4711148 
O    -5.1357607    0.0155055    1.2791303 
H    -5.5404663    0.0155055    1.5942601 
H    -4.7310550    0.0155055    1.5942601 
O     3.2698887   -3.9266138    1.3793983 
H     2.8651831   -3.9266138    1.6945280 
H     3.6745943   -3.9266138    1.6945280 
O     2.5553376    4.4300363    1.3631261 
H     2.1506320    4.4300363    1.6782559 
H     2.9600432    4.4300363    1.6782559 
