15
Energy = -448.6870645876
O     0.3227377    0.0000000    0.0000000 
O    -0.3227377    0.0000000    0.0000000 
H    -4.1018712   -3.2771519    0.6616371 
O    -1.3959377    3.4917789   -3.7193624 
H    -1.8006433    3.4917789   -3.4042327 
H    -0.9912321    3.4917789   -3.4042327 
O    -2.5202601    2.5000138    3.9281823 
H    -2.9249658    2.5000138    4.2433121 
H    -2.1155545    2.5000138    4.2433121 
O    -1.2461145   -5.0193696   -1.1169336 
H    -1.6508201   -5.0193696   -0.8018038 
H    -0.8414088   -5.0193696   -0.8018038 
O    -3.7338286    1.9807284   -3.1802699 
H    -4.1385342    1.9807284   -2.8651402 
H    -3.3291230    1.9807284   -2.8651402 
