15
Energy = -448.6192080602
O     0.3227377    0.0000000    0.0000000 
O    -0.3227377    0.0000000    0.0000000 
H     3.6631765    3.7552914   -0.6940895 
O    -0.2260849   -3.4337935    4.0238122 
H    -0.6307905   -3.4337935    4.3389420 
H     0.1786207   -3.4337935    4.3389420 
O     1.5209025   -2.7555515    4.2577776 
H     1.1161969   -2.7555515    4.5729073 
H     1.9256081   -2.7555515    4.5729073 
O    -2.6090946   -3.2854770   -3.2213095 
H    -3.0138003   -3.2854770   -2.9061797 
H    -2.2043890   -3.2854770   -2.9061797 
O     2.6084022    1.0046719   -4.4895315 
H     2.2036966    1.0046719   -4.1744017 
H     3.0131078    1.0046719   -4.1744017 
