15
Energy = -448.6567102531
O     0.3227377    0.0000000    0.0000000 
O    -0.3227377    0.0000000    0.0000000 
H    -1.0763477   -3.4247511   -3.8878518 
O    -2.1748885   -4.0175677   -2.6667873 
H    -2.5795941   -4.0175677   -2.3516575 
H    -1.7701828   -4.0175677   -2.3516575 
O    -5.0377242    1.2773219   -0.9925386 
H    -5.4424298    1.2773219   -0.6774088 
H    -4.6330186    1.2773219   -0.6774088 
O     2.8297864   -3.0534369    3.2705164 
H     2.4250808   -3.0534369    3.5856461 
H     3.2344920   -3.0534369    3.5856461 
O     1.5917028   -4.4520842    2.3803723 
H     1.1869971   -4.4520842    2.6955021 
H     1.9964084   -4.4520842    2.6955021 
