15
Energy = -448.7282933760
O     0.3227377    0.0000000    0.0000000 
O    -0.3227377    0.0000000    0.0000000 
H    -2.8478636   -1.9126458   -1.3974435 
O    -2.2593992    2.7519368   -1.0176800 
H    -2.6641048    2.7519368   -0.7025503 
H    -1.8546935    2.7519368   -0.7025503 
O     1.6799731   -2.7686384    1.8020196 
H     1.2752675   -2.7686384    2.1171494 
H     2.0846787   -2.7686384    2.1171494 
O     2.6854165   -2.1398041   -1.3858997 
H     2.2807109   -2.1398041   -1.0707699 
H     3.0901221   -2.1398041   -1.0707699 
O    -0.0701682    0.3957391    3.6861355 
H    -0.4748738    0.3957391    4.0012653 
H     0.3345374    0.3957391    4.0012653 
