15
Energy = -448.6919846356
O     0.3227377    0.0000000    0.0000000 
O    -0.3227377    0.0000000    0.0000000 
H     0.0841660   -2.0600479   -4.8735977 
O     1.9346332    2.8871168   -3.9867978 
H     1.5299276    2.8871168   -3.6716681 
H     2.3393388    2.8871168   -3.6716681 
O     1.2702937   -3.4244071   -3.8254164 
H     0.8655881   -3.4244071   -3.5102867 
H     1.6749993   -3.4244071   -3.5102867 
O     1.6383262    3.4518161    3.6648694 
H     1.2336206    3.4518161    3.9799991 
H     2.0430318    3.4518161    3.9799991 
O    -3.7545576    0.0956219    3.7316311 
H    -4.1592633    0.0956219    4.0467608 
H    -3.3498520    0.0956219    4.0467608 
