15
Energy = -448.6873423784
O     0.3227377    0.0000000    0.0000000 
O    -0.3227377    0.0000000    0.0000000 
H     1.3856822    4.2297699    2.8621263 
O    -0.2889149    5.2667962    0.4282900 
H    -0.6936205    5.2667962    0.7434198 
H     0.1157907    5.2667962    0.7434198 
O    -0.6103011    1.4647803   -5.0444815 
H    -1.0150067    1.4647803   -4.7293518 
H    -0.2055955    1.4647803   -4.7293518 
O     3.2270793   -1.6850734   -3.8367203 
H     2.8223736   -1.6850734   -3.5215905 
H     3.6317849   -1.6850734   -3.5215905 
O    -4.1451988   -0.3685534    3.2724540 
H    -4.5499044   -0.3685534    3.5875837 
H    -3.7404932   -0.3685534    3.5875837 
