15
Energy = -448.6756839146
O     0.3227377    0.0000000    0.0000000 
O    -0.3227377    0.0000000    0.0000000 
H    -3.3251152    1.0419675   -3.9825556 
O    -2.3939150   -3.5872035   -3.0628262 
H    -2.7986206   -3.5872035   -2.7476965 
H    -1.9892094   -3.5872035   -2.7476965 
O    -2.3994227   -4.3735427    1.7694741 
H    -2.8041283   -4.3735427    2.0846039 
H    -1.9947171   -4.3735427    2.0846039 
O    -0.2748898   -0.1280867   -5.2793090 
H    -0.6795954   -0.1280867   -4.9641793 
H     0.1298158   -0.1280867   -4.9641793 
O     0.3708056   -3.8401657   -3.6181779 
H    -0.0339000   -3.8401657   -3.3030482 
H     0.7755112   -3.8401657   -3.3030482 
