15
Energy = -448.6992362726
O     0.3227377    0.0000000    0.0000000 
O    -0.3227377    0.0000000    0.0000000 
H     2.7613650   -2.8431895   -3.5062762 
O     4.1488056   -1.1154632   -3.0858941 
H     3.7440999   -1.1154632   -2.7707644 
H     4.5535112   -1.1154632   -2.7707644 
O    -1.8246537    4.0541508    2.8738404 
H    -2.2293593    4.0541508    3.1889702 
H    -1.4199481    4.0541508    3.1889702 
O    -4.1660744   -1.5308396    2.8852902 
H    -4.5707800   -1.5308396    3.2004199 
H    -3.7613688   -1.5308396    3.2004199 
O    -1.4882382   -4.8978743    1.3449618 
H    -1.8929438   -4.8978743    1.6600915 
H    -1.0835325   -4.8978743    1.6600915 
