15
Energy = -448.6659190210
O     0.3227377    0.0000000    0.0000000 
O    -0.3227377    0.0000000    0.0000000 
H     3.9144877   -3.5321109    0.4514584 
O     0.5217135    2.4018810   -4.6825581 
H     0.1170079    2.4018810   -4.3674283 
H     0.9264191    2.4018810   -4.3674283 
O     2.6676449   -2.7855395    3.6269228 
H     2.2629392   -2.7855395    3.9420526 
H     3.0723505   -2.7855395    3.9420526 
O    -3.3911065   -3.3209604   -2.3359908 
H    -3.7958121   -3.3209604   -2.0208611 
H    -2.9864009   -3.3209604   -2.0208611 
O    -0.7132852    0.5297807   -5.2128813 
H    -1.1179908    0.5297807   -4.8977515 
H    -0.3085796    0.5297807   -4.8977515 
