15
Energy = -448.4504749387
O     0.3227377    0.0000000    0.0000000 
O    -0.3227377    0.0000000    0.0000000 
H    -3.2268337    4.1795487   -0.3489312 
O    -2.8619882    4.2619375   -1.2798821 
H    -3.2666939    4.2619375   -0.9647523 
H    -2.4572826    4.2619375   -0.9647523 
O    -0.7746257   -4.1347493    3.2141599 
H    -1.1793313   -4.1347493    3.5292897 
H    -0.3699201   -4.1347493    3.5292897 
O    -0.8609025   -0.7400247   -5.1647988 
H    -1.2656081   -0.7400247   -4.8496691 
H    -0.4561969   -0.7400247   -4.8496691 
O     3.2286336   -2.5969946   -3.2877975 
H     2.8239280   -2.5969946   -2.9726678 
H     3.6333392   -2.5969946   -2.9726678 
