15
Energy = -448.7193052978
O     0.3227377    0.0000000    0.0000000 
O    -0.3227377    0.0000000    0.0000000 
H    -2.3931598   -2.4205094   -1.4612702 
O    -2.9406180    1.1169481   -1.9524007 
H    -3.3453236    1.1169481   -1.6372710 
H    -2.5359124    1.1169481   -1.6372710 
O    -1.5855567    2.0019393    2.6869787 
H    -1.9902623    2.0019393    3.0021085 
H    -1.1808510    2.0019393    3.0021085 
O    -3.0875565   -1.3395434    1.5510226 
H    -3.4922622   -1.3395434    1.8661523 
H    -2.6828509   -1.3395434    1.8661523 
O    -0.1513020   -3.5253425    1.1309103 
H    -0.5560076   -3.5253425    1.4460401 
H     0.2534037   -3.5253425    1.4460401 
