15
Energy = -448.6891016612
O     0.3227377    0.0000000    0.0000000 
O    -0.3227377    0.0000000    0.0000000 
H     3.8165836    1.3971219   -3.3888900 
O     3.2151198   -4.1816774    0.4273390 
H     2.8104141   -4.1816774    0.7424688 
H     3.6198254   -4.1816774    0.7424688 
O    -4.5214166   -0.5885197    2.6895180 
H    -4.9261222   -0.5885197    3.0046478 
H    -4.1167110   -0.5885197    3.0046478 
O    -0.9338993   -1.3184742   -5.0353122 
H    -1.3386049   -1.3184742   -4.7201825 
H    -0.5291937   -1.3184742   -4.7201825 
O    -4.2711537   -2.9015585    1.1617975 
H    -4.6758593   -2.9015585    1.4769273 
H    -3.8664481   -2.9015585    1.4769273 
