15
Energy = -448.5942436275
O     0.3227377    0.0000000    0.0000000 
O    -0.3227377    0.0000000    0.0000000 
H    -3.4599452    1.7968805    3.5781051 
O     3.2412958   -4.0033501    1.2162104 
H     2.8365902   -4.0033501    1.5313401 
H     3.6460015   -4.0033501    1.5313401 
O    -3.8899642   -0.3138347    3.5776311 
H    -4.2946698   -0.3138347    3.8927608 
H    -3.4852586   -0.3138347    3.8927608 
O     2.2669453   -4.5885157   -1.3413447 
H     1.8622397   -4.5885157   -1.0262150 
H     2.6716509   -4.5885157   -1.0262150 
O     3.7665757   -3.6664388   -0.6069484 
H     3.3618700   -3.6664388   -0.2918186 
H     4.1712813   -3.6664388   -0.2918186 
