15
Energy = -448.7207490357
O     0.3227377    0.0000000    0.0000000 
O    -0.3227377    0.0000000    0.0000000 
H     1.6231032    3.2893882   -0.5165762 
O    -2.6122985   -0.9566322    2.4496061 
H    -3.0170041   -0.9566322    2.7647358 
H    -2.2075929   -0.9566322    2.7647358 
O     1.6941351    1.1884974    3.0760226 
H     1.2894295    1.1884974    3.3911523 
H     2.0988407    1.1884974    3.3911523 
O     0.6709045   -1.0498336    3.4921919 
H     0.2661989   -1.0498336    3.8073217 
H     1.0756102   -1.0498336    3.8073217 
O    -0.7565330    1.1533401    3.4416205 
H    -1.1612386    1.1533401    3.7567502 
H    -0.3518274    1.1533401    3.7567502 
