15
Energy = -448.6978955258
O     0.3227377    0.0000000    0.0000000 
O    -0.3227377    0.0000000    0.0000000 
H    -2.6397329   -1.1682924    4.4350580 
O    -2.1193296    0.6526311   -4.8009572 
H    -2.5240352    0.6526311   -4.4858275 
H    -1.7146240    0.6526311   -4.4858275 
O     2.2581554   -3.1030526    3.6472017 
H     1.8534497   -3.1030526    3.9623315 
H     2.6628610   -3.1030526    3.9623315 
O    -4.8248906   -1.1092637    1.8726680 
H    -5.2295962   -1.1092637    2.1877978 
H    -4.4201850   -1.1092637    2.1877978 
O     4.2801877    1.3730132    2.7961943 
H     3.8754820    1.3730132    3.1113241 
H     4.6848933    1.3730132    3.1113241 
