15
Energy = -448.6911569766
O     0.3227377    0.0000000    0.0000000 
O    -0.3227377    0.0000000    0.0000000 
H     2.9731070   -3.3247505    2.8477193 
O    -4.5911836   -2.6168034    0.2798253 
H    -4.9958892   -2.6168034    0.5949550 
H    -4.1864779   -2.6168034    0.5949550 
O     5.0652881    1.5308497    0.0505769 
H     4.6605825    1.5308497    0.3657066 
H     5.4699938    1.5308497    0.3657066 
O    -2.0255924   -4.2711302   -2.3747348 
H    -2.4302980   -4.2711302   -2.0596050 
H    -1.6208867   -4.2711302   -2.0596050 
O     4.6772446   -2.3710867    0.7138114 
H     4.2725390   -2.3710867    1.0289411 
H     5.0819503   -2.3710867    1.0289411 
