15
Energy = -448.6937220600
O     0.3227377    0.0000000    0.0000000 
O    -0.3227377    0.0000000    0.0000000 
H    -1.7185088    3.8913915    3.1474808 
O    -2.5987645    4.2206476   -1.8497170 
H    -3.0034701    4.2206476   -1.5345872 
H    -2.1940589    4.2206476   -1.5345872 
O     4.6446305    2.3602364   -0.9233424 
H     4.2399249    2.3602364   -0.6082126 
H     5.0493362    2.3602364   -0.6082126 
O     3.9155597    1.2638358   -3.3239896 
H     3.5108541    1.2638358   -3.0088599 
H     4.3202653    1.2638358   -3.0088599 
O     1.5543851    2.2177187    4.5500208 
H     1.1496795    2.2177187    4.8651505 
H     1.9590907    2.2177187    4.8651505 
