15
Energy = -448.6570923086
O     0.3227377    0.0000000    0.0000000 
O    -0.3227377    0.0000000    0.0000000 
H    -3.3857852   -2.2735730    3.3719669 
O     1.1024096    2.6894603   -4.4182636 
H     0.6977040    2.6894603   -4.1031338 
H     1.5071152    2.6894603   -4.1031338 
O     2.9778050    1.8188750   -3.9745778 
H     2.5730994    1.8188750   -3.6594480 
H     3.3825106    1.8188750   -3.6594480 
O    -3.8681916   -3.1008669   -1.8467907 
H    -4.2728972   -3.1008669   -1.5316609 
H    -3.4634860   -3.1008669   -1.5316609 
O    -0.4096600    1.7133629    4.9936946 
H    -0.8143657    1.7133629    5.3088243 
H    -0.0049544    1.7133629    5.3088243 
