15
Energy = -448.6820076288
O     0.3227377    0.0000000    0.0000000 
O    -0.3227377    0.0000000    0.0000000 
H     0.5541004   -4.9833394    1.6917853 
O     2.6143543   -4.2447307    1.7786586 
H     2.2096487   -4.2447307    2.0937883 
H     3.0190599   -4.2447307    2.0937883 
O    -0.6040931   -4.0575641    3.3465299 
H    -1.0087987   -4.0575641    3.6616597 
H    -0.1993875   -4.0575641    3.6616597 
O    -1.8056904    2.9623150   -3.9921095 
H    -2.2103960    2.9623150   -3.6769797 
H    -1.4009847    2.9623150   -3.6769797 
O    -2.6406054    4.0878514   -2.0745787 
H    -3.0453110    4.0878514   -1.7594489 
H    -2.2358998    4.0878514   -1.7594489 
