15
Energy = -448.6979802953
O     0.3227377    0.0000000    0.0000000 
O    -0.3227377    0.0000000    0.0000000 
H     1.4984881    4.0441280    3.0663329 
O    -1.1005720   -2.1629027    4.7062563 
H    -1.5052777   -2.1629027    5.0213860 
H    -0.6958664   -2.1629027    5.0213860 
O     3.2676273    3.8842732    1.4997157 
H     2.8629217    3.8842732    1.8148454 
H     3.6723329    3.8842732    1.8148454 
O    -2.9512289   -0.6154138   -4.3452986 
H    -3.3559345   -0.6154138   -4.0301689 
H    -2.5465233   -0.6154138   -4.0301689 
O    -2.6305503    2.8559664    3.5991083 
H    -3.0352559    2.8559664    3.9142380 
H    -2.2258447    2.8559664    3.9142380 
