15
Energy = -448.7015798021
O     0.3227377    0.0000000    0.0000000 
O    -0.3227377    0.0000000    0.0000000 
H     2.5720535    3.9191473    2.4551295 
O    -1.4093330    1.1512031    4.9728034 
H    -1.8140387    1.1512031    5.2879332 
H    -1.0046274    1.1512031    5.2879332 
O     4.1890798    2.2150894    2.3591466 
H     3.7843742    2.2150894    2.6742764 
H     4.5937854    2.2150894    2.6742764 
O     3.0196208   -2.5682730    3.5092887 
H     2.6149152   -2.5682730    3.8244184 
H     3.4243264   -2.5682730    3.8244184 
O    -1.0414942    3.1814434   -4.0945942 
H    -1.4461999    3.1814434   -3.7794644 
H    -0.6367886    3.1814434   -3.7794644 
