15
Energy = -448.6945766152
O     0.3227377    0.0000000    0.0000000 
O    -0.3227377    0.0000000    0.0000000 
H    -2.7220487    3.8162637    2.4554874 
O     3.6867085    0.4593668    3.7720530 
H     3.2820029    0.4593668    4.0871827 
H     4.0914142    0.4593668    4.0871827 
O     2.4508688   -4.3798367   -1.6734681 
H     2.0461632   -4.3798367   -1.3583383 
H     2.8555744   -4.3798367   -1.3583383 
O    -1.4895270    3.4014208    3.7739743 
H    -1.8942326    3.4014208    4.0891040 
H    -1.0848214    3.4014208    4.0891040 
O    -3.4955940    3.5592107   -1.7613638 
H    -3.9002996    3.5592107   -1.4462340 
H    -3.0908884    3.5592107   -1.4462340 
