15
Energy = -448.6748819257
O     0.3227377    0.0000000    0.0000000 
O    -0.3227377    0.0000000    0.0000000 
H    -4.0564526   -2.4725136   -2.3312453 
O    -0.3954355    2.5612134    4.6175105 
H    -0.8001412    2.5612134    4.9326403 
H     0.0092701    2.5612134    4.9326403 
O    -2.1952329    0.6019255   -4.7734182 
H    -2.5999385    0.6019255   -4.4582885 
H    -1.7905273    0.6019255   -4.4582885 
O    -2.9636388    2.5395607   -3.5697929 
H    -3.3683444    2.5395607   -3.2546632 
H    -2.5589332    2.5395607   -3.2546632 
O     2.5025553    3.5833886   -2.9794183 
H     2.0978497    3.5833886   -2.6642886 
H     2.9072609    3.5833886   -2.6642886 
