15
Energy = -448.3977580461
O     0.3227377    0.0000000    0.0000000 
O    -0.3227377    0.0000000    0.0000000 
H    -3.7788977    3.7007749   -0.1644185 
O     4.0096757    3.4124029    0.5337111 
H     3.6049701    3.4124029    0.8488409 
H     4.4143813    3.4124029    0.8488409 
O    -4.5817788    0.8397114    2.5147452 
H    -4.9864844    0.8397114    2.8298749 
H    -4.1770731    0.8397114    2.8298749 
O     2.1020704   -3.7150399   -3.1239527 
H     1.6973648   -3.7150399   -2.8088230 
H     2.5067761   -3.7150399   -2.8088230 
O     3.3467756    3.6495515    1.8699646 
H     2.9420700    3.6495515    2.1850944 
H     3.7514812    3.6495515    2.1850944 
