15
Energy = -448.6901547811
O     0.3227377    0.0000000    0.0000000 
O    -0.3227377    0.0000000    0.0000000 
H    -3.3559583   -1.5718346   -3.7775277 
O    -3.4383493   -4.0169053   -0.2085138 
H    -3.8430549   -4.0169053    0.1066160 
H    -3.0336436   -4.0169053    0.1066160 
O    -1.1015200   -3.4100679   -3.8899390 
H    -1.5062256   -3.4100679   -3.5748092 
H    -0.6968144   -3.4100679   -3.5748092 
O     3.3610999    3.2937922   -2.4163134 
H     2.9563942    3.2937922   -2.1011837 
H     3.7658055    3.2937922   -2.1011837 
O     3.4689306    3.6693204    1.5866241 
H     3.0642250    3.6693204    1.9017538 
H     3.8736362    3.6693204    1.9017538 
