15
Energy = -448.7006019168
O     0.3227377    0.0000000    0.0000000 
O    -0.3227377    0.0000000    0.0000000 
H    -1.1528036    0.2785760   -3.5092491 
O    -0.6519482   -2.2053552    2.9076863 
H    -1.0566538   -2.2053552    3.2228160 
H    -0.2472426   -2.2053552    3.2228160 
O    -1.8784231    2.1494862   -2.3568764 
H    -2.2831287    2.1494862   -2.0417466 
H    -1.4737175    2.1494862   -2.0417466 
O     2.2456474   -1.5488707    2.5096489 
H     1.8409417   -1.5488707    2.8247787 
H     2.6503530   -1.5488707    2.8247787 
O     0.7967408   -1.6282526   -3.2266205 
H     0.3920352   -1.6282526   -2.9114908 
H     1.2014464   -1.6282526   -2.9114908 
