15
Energy = -448.6919871215
O     0.3227377    0.0000000    0.0000000 
O    -0.3227377    0.0000000    0.0000000 
H     4.6005841    2.5553198    0.5547994 
O    -0.3363425   -5.0814715    1.4419429 
H    -0.7410481   -5.0814715    1.7570727 
H     0.0683631   -5.0814715    1.7570727 
O     2.8817418    3.1860335    3.0936820 
H     2.4770362    3.1860335    3.4088118 
H     3.2864474    3.1860335    3.4088118 
O    -1.9104472   -0.7639312   -4.8716265 
H    -2.3151529   -0.7639312   -4.5564967 
H    -1.5057416   -0.7639312   -4.5564967 
O     1.4632028    4.6876693   -1.9679429 
H     1.0584972    4.6876693   -1.6528131 
H     1.8679084    4.6876693   -1.6528131 
