15
Energy = -448.6808572432
O     0.3227377    0.0000000    0.0000000 
O    -0.3227377    0.0000000    0.0000000 
H     0.2595168   -3.0355717    4.3267530 
O     0.8081400   -5.1043615   -1.1343212 
H     0.4034344   -5.1043615   -0.8191915 
H     1.2128456   -5.1043615   -0.8191915 
O    -2.8854654   -3.6216229   -2.5576361 
H    -3.2901710   -3.6216229   -2.2425064 
H    -2.4807597   -3.6216229   -2.2425064 
O     0.0258836    4.8088955   -2.2045585 
H    -0.3788221    4.8088955   -1.8894287 
H     0.4305892    4.8088955   -1.8894287 
O     2.3066088   -1.9117442   -4.3583022 
H     1.9019032   -1.9117442   -4.0431725 
H     2.7113144   -1.9117442   -4.0431725 
