15
Energy = -448.6625964536
O     0.3227377    0.0000000    0.0000000 
O    -0.3227377    0.0000000    0.0000000 
H     3.1700734   -3.0662084   -2.9243524 
O     4.8000467   -2.2276256    0.0122312 
H     4.3953411   -2.2276256    0.3273610 
H     5.2047524   -2.2276256    0.3273610 
O    -3.3126272   -2.5789405   -3.2177884 
H    -3.7173328   -2.5789405   -2.9026587 
H    -2.9079216   -2.5789405   -2.9026587 
O     2.6550896    0.4935737    4.5545578 
H     2.2503840    0.4935737    4.8696876 
H     3.0597953    0.4935737    4.8696876 
O     1.6717291   -3.4833830   -3.6120620 
H     1.2670235   -3.4833830   -3.2969322 
H     2.0764347   -3.4833830   -3.2969322 
