15
Energy = -448.6821445086
O     0.3227377    0.0000000    0.0000000 
O    -0.3227377    0.0000000    0.0000000 
H     4.3976487   -2.9301313   -0.2790206 
O    -4.8296562   -1.7445579    1.2819566 
H    -5.2343618   -1.7445579    1.5970863 
H    -4.4249506   -1.7445579    1.5970863 
O    -2.2643322   -3.1745992   -3.5736027 
H    -2.6690378   -3.1745992   -3.2584729 
H    -1.8596266   -3.1745992   -3.2584729 
O    -5.2661335    0.1720570   -0.4872246 
H    -5.6708391    0.1720570   -0.1720948 
H    -4.8614279    0.1720570   -0.1720948 
O     3.7503269    1.9368650   -3.1878556 
H     3.3456212    1.9368650   -2.8727259 
H     4.1550325    1.9368650   -2.8727259 
