15
Energy = -448.6546223140
O     0.3227377    0.0000000    0.0000000 
O    -0.3227377    0.0000000    0.0000000 
H    -3.0289003    3.1038829   -3.0322450 
O    -2.2047765    4.6755519   -1.1280533 
H    -2.6094821    4.6755519   -0.8129236 
H    -1.8000708    4.6755519   -0.8129236 
O    -0.7838838   -2.4511722    4.6276283 
H    -1.1885894   -2.4511722    4.9427581 
H    -0.3791781   -2.4511722    4.9427581 
O    -1.7323181    2.9098011   -4.0625567 
H    -2.1370237    2.9098011   -3.7474269 
H    -1.3276125    2.9098011   -3.7474269 
O    -0.9560677   -1.4842899   -4.9847878 
H    -1.3607734   -1.4842899   -4.6696581 
H    -0.5513621   -1.4842899   -4.6696581 
