15
Energy = -448.7423223535
O     0.3227377    0.0000000    0.0000000 
O    -0.3227377    0.0000000    0.0000000 
H    -0.0492674    3.9837327    3.4828556 
O    -5.2707414   -0.4396803   -0.1659480 
H    -5.6754470   -0.4396803    0.1491818 
H    -4.8660358   -0.4396803    0.1491818 
O    -0.0151123   -0.2213553   -5.2833529 
H    -0.4198179   -0.2213553   -4.9682231 
H     0.3895933   -0.2213553   -4.9682231 
O    -0.5225849   -4.7387063    2.3003714 
H    -0.9272906   -4.7387063    2.6155012 
H    -0.1178793   -4.7387063    2.6155012 
O     1.3246749    5.1135940    0.3187700 
H     0.9199693    5.1135940    0.6338998 
H     1.7293806    5.1135940    0.6338998 
