15
Energy = -448.6916236229
O     0.3227377    0.0000000    0.0000000 
O    -0.3227377    0.0000000    0.0000000 
H     1.5472960   -0.9582229   -4.9689556 
O     3.1591296    3.7055856   -2.0677980 
H     2.7544240    3.7055856   -1.7526683 
H     3.5638352    3.7055856   -1.7526683 
O    -3.6107619    1.1942189   -3.6757839 
H    -4.0154675    1.1942189   -3.3606541 
H    -3.2060563    1.1942189   -3.3606541 
O    -0.9587125   -2.8263251    4.3736149 
H    -1.3634181   -2.8263251    4.6887446 
H    -0.5540069   -2.8263251    4.6887446 
O    -3.4637704   -2.2453879    3.3148615 
H    -3.8684761   -2.2453879    3.6299912 
H    -3.0590648   -2.2453879    3.6299912 
