15
Energy = -448.6593377638
O     0.3227377    0.0000000    0.0000000 
O    -0.3227377    0.0000000    0.0000000 
H    -3.8391232    3.6377928    0.1744502 
O    -3.6020040    3.7123760    1.1203072 
H    -4.0067096    3.7123760    1.4354370 
H    -3.1972984    3.7123760    1.4354370 
O     0.2501275    3.3904299    4.0590398 
H    -0.1545782    3.3904299    4.3741695 
H     0.6548331    3.3904299    4.3741695 
O    -3.3293777   -3.4733700   -2.1993653 
H    -3.7340834   -3.4733700   -1.8842356 
H    -2.9246721   -3.4733700   -1.8842356 
O     3.6974654   -2.4967590    2.8494244 
H     3.2927597   -2.4967590    3.1645541 
H     4.1021710   -2.4967590    3.1645541 
