15
Energy = -448.6880018417
O     0.3227377    0.0000000    0.0000000 
O    -0.3227377    0.0000000    0.0000000 
H    -4.5494180    2.6188909   -0.6686121 
O     3.0117450    4.3011477    0.6613027 
H     2.6070394    4.3011477    0.9764325 
H     3.4164506    4.3011477    0.9764325 
O     1.5998331    2.7561637    4.2283274 
H     1.1951274    2.7561637    4.5434572 
H     2.0045387    2.7561637    4.5434572 
O    -3.1225691    1.0798821   -4.1297876 
H    -3.5272747    1.0798821   -3.8146579 
H    -2.7178635    1.0798821   -3.8146579 
O    -0.4005545    2.0164561   -4.8723300 
H    -0.8052601    2.0164561   -4.5572002 
H     0.0041511    2.0164561   -4.5572002 
