15
Energy = -448.2401217491
O     0.3227377    0.0000000    0.0000000 
O    -0.3227377    0.0000000    0.0000000 
H    -1.2439710    0.9948614    3.3442752 
O    -1.1627217    1.7182735    3.0724782 
H    -1.5674273    1.7182735    3.3876080 
H    -0.7580161    1.7182735    3.3876080 
O     2.8651142   -1.2831745   -1.9624434 
H     2.4604086   -1.2831745   -1.6473137 
H     3.2698199   -1.2831745   -1.6473137 
O     0.1566395    2.4966605    2.7357125 
H    -0.2480661    2.4966605    3.0508423 
H     0.5613451    2.4966605    3.0508423 
O     1.4337370   -3.4139111   -0.1011126 
H     1.0290313   -3.4139111    0.2140171 
H     1.8384426   -3.4139111    0.2140171 
