15
Energy = -448.6954121592
O     0.3227377    0.0000000    0.0000000 
O    -0.3227377    0.0000000    0.0000000 
H    -2.8642508   -1.4007816   -4.2233534 
O     4.1128694   -2.3150533   -2.3894906 
H     3.7081638   -2.3150533   -2.0743608 
H     4.5175750   -2.3150533   -2.0743608 
O     0.6542129   -4.6070324   -2.5161748 
H     0.2495072   -4.6070324   -2.2010451 
H     1.0589185   -4.6070324   -2.2010451 
O     2.0599227   -4.0045524    2.7828137 
H     1.6552171   -4.0045524    3.0979434 
H     2.4646283   -4.0045524    3.0979434 
O    -3.8855147    2.1097940    2.9114064 
H    -4.2902203    2.1097940    3.2265361 
H    -3.4808090    2.1097940    3.2265361 
