15
Energy = -448.7028056618
O     0.3227377    0.0000000    0.0000000 
O    -0.3227377    0.0000000    0.0000000 
H    -2.3476565   -4.2310117    2.1424018 
O     2.4685375    4.1849327    2.1003086 
H     2.0638319    4.1849327    2.4154384 
H     2.8732431    4.1849327    2.4154384 
O    -2.5332213   -4.6222287   -0.4659465 
H    -2.9379269   -4.6222287   -0.1508168 
H    -2.1285156   -4.6222287   -0.1508168 
O    -1.3175746    3.4923069    3.7548477 
H    -1.7222803    3.4923069    4.0699775 
H    -0.9128690    3.4923069    4.0699775 
O     4.7392415   -2.2435405    0.7171731 
H     4.3345359   -2.2435405    1.0323028 
H     5.1439472   -2.2435405    1.0323028 
