15
Energy = -448.6680952821
O     0.3227377    0.0000000    0.0000000 
O    -0.3227377    0.0000000    0.0000000 
H     4.8676736    0.5599446   -1.9987625 
O    -4.1570704   -0.8626317   -3.1549486 
H    -4.5617761   -0.8626317   -2.8398188 
H    -3.7523648   -0.8626317   -2.8398188 
O    -3.5960910    2.7806307   -2.7053052 
H    -4.0007966    2.7806307   -2.3901754 
H    -3.1913854    2.7806307   -2.3901754 
O    -3.8139337    3.1520774    1.8802383 
H    -4.2186393    3.1520774    2.1953680 
H    -3.4092281    3.1520774    2.1953680 
O     3.9261268    1.2396050   -3.3206519 
H     3.5214211    1.2396050   -3.0055222 
H     4.3308324    1.2396050   -3.0055222 
