15
Energy = -448.6287550669
O     0.3227377    0.0000000    0.0000000 
O    -0.3227377    0.0000000    0.0000000 
H     5.0433619   -0.8978516   -1.3271020 
O    -3.1796541   -3.1488060    2.8282390 
H    -3.5843598   -3.1488060    3.1433688 
H    -2.7749485   -3.1488060    3.1433688 
O    -2.2048716    4.4936809    1.7207995 
H    -2.6095773    4.4936809    2.0359293 
H    -1.8001660    4.4936809    2.0359293 
O     4.4676168   -1.2760850   -2.5289896 
H     4.0629112   -1.2760850   -2.2138599 
H     4.8723224   -1.2760850   -2.2138599 
O     3.4911597    2.0564073   -3.4000319 
H     3.0864540    2.0564073   -3.0849021 
H     3.8958653    2.0564073   -3.0849021 
