15
Energy = -448.1182878359
O     0.3227377    0.0000000    0.0000000 
O    -0.3227377    0.0000000    0.0000000 
H    -5.2557385   -0.3739519   -0.4901111 
O    -5.2342841    0.1560973   -0.7582980 
H    -5.6389898    0.1560973   -0.4431682 
H    -4.8295785    0.1560973   -0.4431682 
O     1.9774453   -4.8355138   -0.8390593 
H     1.5727397   -4.8355138   -0.5239295 
H     2.3821510   -4.8355138   -0.5239295 
O    -1.9165706   -4.6143758    1.7465008 
H    -2.3212762   -4.6143758    2.0616305 
H    -1.5118649   -4.6143758    2.0616305 
O    -1.4232815    2.9151330   -4.1770376 
H    -1.8279871    2.9151330   -3.8619078 
H    -1.0185759    2.9151330   -3.8619078 
