15
Energy = -448.6889753059
O     0.3227377    0.0000000    0.0000000 
O    -0.3227377    0.0000000    0.0000000 
H    -0.5287846   -3.0489518    4.2926816 
O    -4.2282391    0.1456225    3.1823843 
H    -4.6329447    0.1456225    3.4975140 
H    -3.8235335    0.1456225    3.4975140 
O     0.6473137    4.9967711   -1.6136716 
H     0.2426081    4.9967711   -1.2985418 
H     1.0520193    4.9967711   -1.2985418 
O    -2.5978098   -2.5928264    3.8157812 
H    -3.0025154   -2.5928264    4.1309110 
H    -2.1931042   -2.5928264    4.1309110 
O     2.9146350   -3.0906243   -3.1515138 
H     2.5099293   -3.0906243   -2.8363840 
H     3.3193406   -3.0906243   -2.8363840 
