15
Energy = -448.6909139818
O     0.3227377    0.0000000    0.0000000 
O    -0.3227377    0.0000000    0.0000000 
H     1.1150631   -3.0753721    4.1595140 
O     1.8088219   -4.9560400    0.4144553 
H     1.4041162   -4.9560400    0.7295851 
H     2.2135275   -4.9560400    0.7295851 
O    -3.9573911    3.4813192    0.4752605 
H    -4.3620967    3.4813192    0.7903903 
H    -3.5526855    3.4813192    0.7903903 
O     4.2770997    2.9833293   -0.8956798 
H     3.8723941    2.9833293   -0.5805500 
H     4.6818054    2.9833293   -0.5805500 
O     2.1998975    3.7123727   -3.0591714 
H     1.7951919    3.7123727   -2.7440417 
H     2.6046031    3.7123727   -2.7440417 
