15
Energy = -448.6965083931
O     0.3227377    0.0000000    0.0000000 
O    -0.3227377    0.0000000    0.0000000 
H    -3.9157917    2.3102368   -2.7078067 
O    -4.0514430   -2.8787877    1.8206925 
H    -4.4561486   -2.8787877    2.1358222 
H    -3.6467373   -2.8787877    2.1358222 
O     0.6000133   -4.4195749    2.8516019 
H     0.1953077   -4.4195749    3.1667317 
H     1.0047189   -4.4195749    3.1667317 
O    -3.6685633   -0.5123816   -3.7753816 
H    -4.0732689   -0.5123816   -3.4602518 
H    -3.2638577   -0.5123816   -3.4602518 
O    -4.7027782    1.8350690    1.5909743 
H    -5.1074838    1.8350690    1.9061041 
H    -4.2980726    1.8350690    1.9061041 
