15
Energy = -448.6936258771
O     0.3227377    0.0000000    0.0000000 
O    -0.3227377    0.0000000    0.0000000 
H     3.1160283   -4.0227671    1.4527725 
O    -1.9247514   -4.8954723    0.5804092 
H    -2.3294570   -4.8954723    0.8955389 
H    -1.5200458   -4.8954723    0.8955389 
O    -3.4173479    3.6277837   -1.7749303 
H    -3.8220535    3.6277837   -1.4598006 
H    -3.0126423    3.6277837   -1.4598006 
O     2.5167029   -3.6377968   -2.9006248 
H     2.1119972   -3.6377968   -2.5854951 
H     2.9214085   -3.6377968   -2.5854951 
O     3.3632567    3.0664142    2.7034764 
H     2.9585511    3.0664142    3.0186061 
H     3.7679623    3.0664142    3.0186061 
