15
Energy = -448.6934028123
O     0.3227377    0.0000000    0.0000000 
O    -0.3227377    0.0000000    0.0000000 
H     2.6773685    2.1234538    4.0404799 
O    -2.9110895   -3.4152074    2.8081810 
H    -3.3157951   -3.4152074    3.1233108 
H    -2.5063839   -3.4152074    3.1233108 
O     4.0724023    3.3723842   -0.2093086 
H     3.6676967    3.3723842    0.1058212 
H     4.4771080    3.3723842    0.1058212 
O    -0.1529727   -2.8303548   -4.4648513 
H    -0.5576783   -2.8303548   -4.1497216 
H     0.2517329   -2.8303548   -4.1497216 
O     0.8102951   -5.1903454   -0.6338663 
H     0.4055895   -5.1903454   -0.3187366 
H     1.2150007   -5.1903454   -0.3187366 
