15
Energy = -448.6941705469
O     0.3227377    0.0000000    0.0000000 
O    -0.3227377    0.0000000    0.0000000 
H     0.7000623    0.3488849    5.2336439 
O     4.5508803    2.1659628   -1.6089754 
H     4.1461747    2.1659628   -1.2938456 
H     4.9555859    2.1659628   -1.2938456 
O    -3.7754274    2.8877342   -2.3221709 
H    -4.1801330    2.8877342   -2.0070411 
H    -3.3707218    2.8877342   -2.0070411 
O    -1.8627197    1.6320897    4.6802369 
H    -2.2674253    1.6320897    4.9953667 
H    -1.4580141    1.6320897    4.9953667 
O    -0.2164485    5.2756383   -0.3478406 
H    -0.6211542    5.2756383   -0.0327109 
H     0.1882571    5.2756383   -0.0327109 
