15
Energy = -448.6949848081
O     0.3227377    0.0000000    0.0000000 
O    -0.3227377    0.0000000    0.0000000 
H     1.3009834    3.3288336   -3.9024538 
O    -4.0524948    0.7119946   -3.3238752 
H    -4.4572004    0.7119946   -3.0087455 
H    -3.6477891    0.7119946   -3.0087455 
O     2.3138502   -1.8887344    4.3720154 
H     1.9091445   -1.8887344    4.6871451 
H     2.7185558   -1.8887344    4.6871451 
O    -3.7460884   -3.5821768    1.0703794 
H    -4.1507940   -3.5821768    1.3855092 
H    -3.3413828   -3.5821768    1.3855092 
O     2.8580665    4.4409756   -0.3309406 
H     2.4533609    4.4409756   -0.0158108 
H     3.2627721    4.4409756   -0.0158108 
