15
Energy = -448.6876378914
O     0.3227377    0.0000000    0.0000000 
O    -0.3227377    0.0000000    0.0000000 
H    -2.0577369    2.6175205   -4.1130453 
O     2.7438967    3.7520345   -2.5252875 
H     2.3391911    3.7520345   -2.2101578 
H     3.1486023    3.7520345   -2.2101578 
O     2.0857349   -3.0690908    3.7764594 
H     1.6810293   -3.0690908    4.0915892 
H     2.4904405   -3.0690908    4.0915892 
O    -1.4420255   -4.9322818   -1.2595625 
H    -1.8467311   -4.9322818   -0.9444327 
H    -1.0373199   -4.9322818   -0.9444327 
O    -3.1630288   -3.4505261   -2.4644241 
H    -3.5677345   -3.4505261   -2.1492943 
H    -2.7583232   -3.4505261   -2.1492943 
