15
Energy = -448.5461927120
O     0.3227377    0.0000000    0.0000000 
O    -0.3227377    0.0000000    0.0000000 
H    -1.8385912    4.9231762    0.6202861 
O     1.3428929   -0.7530520    5.0666083 
H     0.9381873   -0.7530520    5.3817380 
H     1.7475985   -0.7530520    5.3817380 
O    -2.3191572    3.9141949   -2.6987204 
H    -2.7238628    3.9141949   -2.3835906 
H    -1.9144516    3.9141949   -2.3835906 
O     0.4903407    1.4744628   -5.0547295 
H     0.0856351    1.4744628   -4.7395998 
H     0.8950463    1.4744628   -4.7395998 
O    -3.1968081    2.6024604   -3.3144359 
H    -3.6015137    2.6024604   -2.9993061 
H    -2.7921025    2.6024604   -2.9993061 
