15
Energy = -448.7065058451
O     0.3227377    0.0000000    0.0000000 
O    -0.3227377    0.0000000    0.0000000 
H     3.1744738    0.6930902   -1.7786882 
O    -2.3175484   -1.6013755    2.4091658 
H    -2.7222540   -1.6013755    2.7242956 
H    -1.9128428   -1.6013755    2.7242956 
O    -0.7818455    0.4275996   -3.5916863 
H    -1.1865511    0.4275996   -3.2765565 
H    -0.3771399    0.4275996   -3.2765565 
O     0.5311418   -2.5258942    2.6606680 
H     0.1264362   -2.5258942    2.9757978 
H     0.9358474   -2.5258942    2.9757978 
O     1.7317901   -2.4711894   -2.1446107 
H     1.3270844   -2.4711894   -1.8294810 
H     2.1364957   -2.4711894   -1.8294810 
