15
Energy = -448.6538595538
O     0.3227377    0.0000000    0.0000000 
O    -0.3227377    0.0000000    0.0000000 
H    -4.3233025    3.0515255   -0.0091786 
O    -2.3958123   -2.5724442    3.9591974 
H    -2.8005179   -2.5724442    4.2743272 
H    -1.9911067   -2.5724442    4.2743272 
O    -2.2650446   -3.2749533   -3.4815031 
H    -2.6697502   -3.2749533   -3.1663733 
H    -1.8603390   -3.2749533   -3.1663733 
O    -2.2365271    4.0053817    2.6415098 
H    -2.6412327    4.0053817    2.9566395 
H    -1.8318214    4.0053817    2.9566395 
O    -0.2875496   -3.7539194   -3.7148697 
H    -0.6922552   -3.7539194   -3.3997400 
H     0.1171560   -3.7539194   -3.3997400 
