15
Energy = -448.4727317408
O     0.3227377    0.0000000    0.0000000 
O    -0.3227377    0.0000000    0.0000000 
H    -3.4978540    0.6259369    3.9212315 
O     2.6061740   -4.0244283   -2.2355814 
H     2.2014684   -4.0244283   -1.9204516 
H     3.0108796   -4.0244283   -1.9204516 
O     1.3886385   -3.3613984    3.8476583 
H     0.9839329   -3.3613984    4.1627881 
H     1.7933441   -3.3613984    4.1627881 
O     2.2935286   -3.9450456    2.6831632 
H     1.8888230   -3.9450456    2.9982930 
H     2.6982343   -3.9450456    2.9982930 
O    -4.0268659   -1.0606762   -3.2615308 
H    -4.4315715   -1.0606762   -2.9464011 
H    -3.6221602   -1.0606762   -2.9464011 
