15
Energy = -448.6214467793
O     0.3227377    0.0000000    0.0000000 
O    -0.3227377    0.0000000    0.0000000 
H    -0.9675459    2.9541067    2.0145715 
O     0.0131366    0.1090587   -3.6988459 
H    -0.3915691    0.1090587   -3.3837161 
H     0.4178422    0.1090587   -3.3837161 
O    -0.7791185    1.7262737   -3.1796838 
H    -1.1838241    1.7262737   -2.8645541 
H    -0.3744129    1.7262737   -2.8645541 
O    -0.4596112   -2.4365106    2.7557752 
H    -0.8643168   -2.4365106    3.0709050 
H    -0.0549055   -2.4365106    3.0709050 
O    -3.0320921    0.5100922    2.0695846 
H    -3.4367978    0.5100922    2.3847144 
H    -2.6273865    0.5100922    2.3847144 
