15
Energy = -448.6894731609
O     0.3227377    0.0000000    0.0000000 
O    -0.3227377    0.0000000    0.0000000 
H    -3.2189813   -3.5267134   -2.2810717 
O     1.1367938   -2.2514717    4.6557975 
H     0.7320882   -2.2514717    4.9709272 
H     1.5414994   -2.2514717    4.9709272 
O    -0.0364030    2.6223826   -4.5923883 
H    -0.4411086    2.6223826   -4.2772586 
H     0.3683026    2.6223826   -4.2772586 
O     4.4020940    2.9071431    0.4196052 
H     3.9973884    2.9071431    0.7347349 
H     4.8067996    2.9071431    0.7347349 
O    -1.9816561   -2.3633547   -4.2962855 
H    -2.3863617   -2.3633547   -3.9811557 
H    -1.5769505   -2.3633547   -3.9811557 
