15
Energy = -448.4343968221
O     0.3227377    0.0000000    0.0000000 
O    -0.3227377    0.0000000    0.0000000 
H    -1.7186449    2.1279609    2.4978854 
O     1.9275143    1.2863065    2.8936596 
H     1.5228087    1.2863065    3.2087893 
H     2.3322199    1.2863065    3.2087893 
O     0.6829147    2.3869233    2.7528760 
H     0.2782090    2.3869233    3.0680057 
H     1.0876203    2.3869233    3.0680057 
O    -1.9559548    2.7245373    1.5761916 
H    -2.3606604    2.7245373    1.8913214 
H    -1.5512492    2.7245373    1.8913214 
O    -3.1024665   -1.2118431   -1.6172005 
H    -3.5071722   -1.2118431   -1.3020707 
H    -2.6977609   -1.2118431   -1.3020707 
