15
Energy = -448.7105856234
O     0.3227377    0.0000000    0.0000000 
O    -0.3227377    0.0000000    0.0000000 
H     2.3262385   -1.7605045   -2.2826799 
O    -1.8160636   -2.7266786    1.7325000 
H    -2.2207692   -2.7266786    2.0476298 
H    -1.4113580   -2.7266786    2.0476298 
O    -2.5895973   -1.2974211   -2.3053639 
H    -2.9943029   -1.2974211   -1.9902342 
H    -2.1848917   -1.2974211   -1.9902342 
O     2.2590766    0.5882651   -2.8723278 
H     1.8543709    0.5882651   -2.5571981 
H     2.6637822    0.5882651   -2.5571981 
O     0.8390589    2.4703148    2.6333870 
H     0.4343533    2.4703148    2.9485167 
H     1.2437645    2.4703148    2.9485167 
