15
Energy = -448.6862033540
O     0.3227377    0.0000000    0.0000000 
O    -0.3227377    0.0000000    0.0000000 
H    -4.9720319    1.3276591    1.2325001 
O    -4.4575429   -0.2451097   -2.8375501 
H    -4.8622486   -0.2451097   -2.5224203 
H    -4.0528373   -0.2451097   -2.5224203 
O     3.0597891    2.5264901    3.5048178 
H     2.6550835    2.5264901    3.8199475 
H     3.4644947    2.5264901    3.8199475 
O    -0.4661621   -4.9936118   -1.6842433 
H    -0.8708678   -4.9936118   -1.3691135 
H    -0.0614565   -4.9936118   -1.3691135 
O    -0.1748535   -1.6868953   -5.0088842 
H    -0.5795591   -1.6868953   -4.6937544 
H     0.2298521   -1.6868953   -4.6937544 
