15
Energy = -448.6988287171
O     0.3227377    0.0000000    0.0000000 
O    -0.3227377    0.0000000    0.0000000 
H     0.1739272    3.9419167    3.5261705 
O    -3.7619227   -2.9118291   -2.3139984 
H    -4.1666283   -2.9118291   -1.9988686 
H    -3.3572171   -2.9118291   -1.9988686 
O    -2.1565351    3.4294180    3.4083621 
H    -2.5612407    3.4294180    3.7234918 
H    -1.7518294    3.4294180    3.7234918 
O     1.9152017    4.8763523   -0.7419074 
H     1.5104961    4.8763523   -0.4267776 
H     2.3199073    4.8763523   -0.4267776 
O    -0.2859292   -0.5341922    5.2607331 
H    -0.6906348   -0.5341922    5.5758629 
H     0.1187764   -0.5341922    5.5758629 
