15
Energy = -448.7543339393
O     0.3227377    0.0000000    0.0000000 
O    -0.3227377    0.0000000    0.0000000 
H    -1.1943816   -1.8635398   -4.8066109 
O    -1.7570039   -2.8173090    4.1242673 
H    -2.1617095   -2.8173090    4.4393970 
H    -1.3522983   -2.8173090    4.4393970 
O    -1.9633363    1.6292855    4.6398809 
H    -2.3680420    1.6292855    4.9550106 
H    -1.5586307    1.6292855    4.9550106 
O    -0.8490166    5.0587688    1.3040973 
H    -1.2537223    5.0587688    1.6192271 
H    -0.4443110    5.0587688    1.6192271 
O     0.7576133   -3.6564567   -3.7457932 
H     0.3529077   -3.6564567   -3.4306634 
H     1.1623189   -3.6564567   -3.4306634 
