15
Energy = -448.5284526618
O     0.3227377    0.0000000    0.0000000 
O    -0.3227377    0.0000000    0.0000000 
H     1.8937918   -3.7837623    3.1779760 
O     1.3517766   -3.2058652    3.9909896 
H     0.9470709   -3.2058652    4.3061194 
H     1.7564822   -3.2058652    4.3061194 
O    -3.0087714    2.9138505   -3.2303670 
H    -3.4134770    2.9138505   -2.9152372 
H    -2.6040657    2.9138505   -2.9152372 
O    -1.4759690    3.0534967   -4.0583174 
H    -1.8806746    3.0534967   -3.7431877 
H    -1.0712634    3.0534967   -3.7431877 
O     2.8563127   -4.1874121   -1.5160690 
H     2.4516071   -4.1874121   -1.2009393 
H     3.2610183   -4.1874121   -1.2009393 
