15
Energy = -448.6976541718
O     0.3227377    0.0000000    0.0000000 
O    -0.3227377    0.0000000    0.0000000 
H     2.8493462   -3.2256324    3.0788566 
O     1.1560977    5.1284849   -0.6003191 
H     0.7513920    5.1284849   -0.2851893 
H     1.5608033    5.1284849   -0.2851893 
O    -4.7408423    2.3510088    0.0066222 
H    -5.1455479    2.3510088    0.3217520 
H    -4.3361367    2.3510088    0.3217520 
O    -4.5030230    1.6512650    2.2395963 
H    -4.9077286    1.6512650    2.5547261 
H    -4.0983173    1.6512650    2.5547261 
O    -2.0641418   -2.7875111    4.0002550 
H    -2.4688474   -2.7875111    4.3153847 
H    -1.6594362   -2.7875111    4.3153847 
