15
Energy = -448.6904385122
O     0.3227377    0.0000000    0.0000000 
O    -0.3227377    0.0000000    0.0000000 
H    -3.8243296   -3.1822159   -1.8030090 
O     0.3545471   -3.0622350   -4.2973807 
H    -0.0501585   -3.0622350   -3.9822509 
H     0.7592528   -3.0622350   -3.9822509 
O     2.7591340    2.1691910   -3.9566176 
H     2.3544284    2.1691910   -3.6414878 
H     3.1638396    2.1691910   -3.6414878 
O     3.9160026    2.8663827    2.1136484 
H     3.5112970    2.8663827    2.4287782 
H     4.3207082    2.8663827    2.4287782 
O    -3.7393156   -0.6334092    3.6941774 
H    -4.1440212   -0.6334092    4.0093071 
H    -3.3346100   -0.6334092    4.0093071 
