15
Energy = -448.6950902957
O     0.3227377    0.0000000    0.0000000 
O    -0.3227377    0.0000000    0.0000000 
H    -1.9279552    4.1767095    2.6155158 
O     4.0305085    0.6877371    3.3630582 
H     3.6258029    0.6877371    3.6781880 
H     4.4352142    0.6877371    3.6781880 
O     1.7814348   -3.5821900   -3.4599388 
H     1.3767292   -3.5821900   -3.1448091 
H     2.1861404   -3.5821900   -3.1448091 
O    -0.6961721    1.5826888    5.0050919 
H    -1.1008777    1.5826888    5.3202217 
H    -0.2914665    1.5826888    5.3202217 
O    -4.6138817   -0.2530387   -2.5751701 
H    -5.0185873   -0.2530387   -2.2600403 
H    -4.2091761   -0.2530387   -2.2600403 
