15
Energy = -448.6906636006
O     0.3227377    0.0000000    0.0000000 
O    -0.3227377    0.0000000    0.0000000 
H    -5.0110749    1.1557633   -1.2474678 
O     4.8443942   -1.6052533    1.4029938 
H     4.4396886   -1.6052533    1.7181235 
H     5.2490998   -1.6052533    1.7181235 
O     2.0910255    4.0175871    2.7404490 
H     1.6863198    4.0175871    3.0555788 
H     2.4957311    4.0175871    3.0555788 
O     1.6065819    3.6909796   -3.4311155 
H     1.2018763    3.6909796   -3.1159857 
H     2.0112876    3.6909796   -3.1159857 
O    -3.0990625    2.6816399   -3.3439893 
H    -3.5037681    2.6816399   -3.0288595 
H    -2.6943569    2.6816399   -3.0288595 
