15
Energy = -448.2848485154
O     0.3227377    0.0000000    0.0000000 
O    -0.3227377    0.0000000    0.0000000 
H    -3.2855647    4.1481119    0.0326797 
O     0.0564523   -0.2820666    5.2877107 
H    -0.3482534   -0.2820666    5.6028404 
H     0.4611579   -0.2820666    5.6028404 
O    -3.5946534    3.8302491   -0.6369340 
H    -3.9993590    3.8302491   -0.3218043 
H    -3.1899478    3.8302491   -0.3218043 
O     2.0206193   -3.8367842   -3.0292244 
H     1.6159136   -3.8367842   -2.7140946 
H     2.4253249   -3.8367842   -2.7140946 
O     3.2729398    0.9767034    4.0456392 
H     2.8682342    0.9767034    4.3607690 
H     3.6776454    0.9767034    4.3607690 
