15
Energy = -448.6536199731
O     0.3227377    0.0000000    0.0000000 
O    -0.3227377    0.0000000    0.0000000 
H    -0.0284350    3.8245271    3.6571874 
O     4.2489505    1.1132951   -2.9474775 
H     3.8442449    1.1132951   -2.6323478 
H     4.6536562    1.1132951   -2.6323478 
O     2.4540112    3.3388074   -3.2875925 
H     2.0493056    3.3388074   -2.9724628 
H     2.8587168    3.3388074   -2.9724628 
O    -2.6556407   -3.7079712   -2.6797701 
H    -3.0603463   -3.7079712   -2.3646403 
H    -2.2509351   -3.7079712   -2.3646403 
O    -3.2592164   -1.8201018   -3.7469120 
H    -3.6639220   -1.8201018   -3.4317823 
H    -2.8545108   -1.8201018   -3.4317823 
