15
Energy = -448.3705770891
O     0.3227377    0.0000000    0.0000000 
O    -0.3227377    0.0000000    0.0000000 
H     3.5345235    2.0604457   -3.3562693 
O    -3.2404988   -3.6508614    2.0466092 
H    -3.6452044   -3.6508614    2.3617390 
H    -2.8357932   -3.6508614    2.3617390 
O     4.4010429   -2.8106891   -0.8527895 
H     3.9963373   -2.8106891   -0.5376597 
H     4.8057485   -2.8106891   -0.5376597 
O     1.8740046   -0.7224268    4.8995833 
H     1.4692990   -0.7224268    5.2147131 
H     2.2787102   -0.7224268    5.2147131 
O     3.6413235    1.4249283   -3.5617900 
H     3.2366178    1.4249283   -3.2466603 
H     4.0460291    1.4249283   -3.2466603 
