15
Energy = -448.7177226901
O     0.3227377    0.0000000    0.0000000 
O    -0.3227377    0.0000000    0.0000000 
H     3.4098379    0.2839434   -1.4190741 
O     2.2665717   -1.2936687    2.6325405 
H     1.8618661   -1.2936687    2.9476703 
H     2.6712773   -1.2936687    2.9476703 
O     3.4971577    0.9021203    0.8268420 
H     3.0924521    0.9021203    1.1419718 
H     3.9018633    0.9021203    1.1419718 
O    -3.6500385   -0.3715635   -0.5066757 
H    -4.0547441   -0.3715635   -0.1915459 
H    -3.2453329   -0.3715635   -0.1915459 
O    -0.7430348   -2.6323220    2.5017976 
H    -1.1477404   -2.6323220    2.8169274 
H    -0.3383292   -2.6323220    2.8169274 
