15
Energy = -448.7164723284
O     0.3227377    0.0000000    0.0000000 
O    -0.3227377    0.0000000    0.0000000 
H    -3.3390970   -0.4334634    1.5439982 
O     2.0410544    1.4698697    2.7231338 
H     1.6363487    1.4698697    3.0382636 
H     2.4457600    1.4698697    3.0382636 
O    -1.3724328   -3.4294425    0.2807882 
H    -1.7771384   -3.4294425    0.5959179 
H    -0.9677272   -3.4294425    0.5959179 
O     1.8592948    3.0079715    1.1067243 
H     1.4545891    3.0079715    1.4218540 
H     2.2640004    3.0079715    1.4218540 
O    -1.1346464    3.4449322    0.7563662 
H    -1.5393520    3.4449322    1.0714960 
H    -0.7299408    3.4449322    1.0714960 
