15
Energy = -448.7011288480
O     0.3227377    0.0000000    0.0000000 
O    -0.3227377    0.0000000    0.0000000 
H    -0.9192961    4.9504827    1.6280208 
O     2.5168063    4.5114297   -1.1431985 
H     2.1121007    4.5114297   -0.8280687 
H     2.9215119    4.5114297   -0.8280687 
O     3.9917528    0.2936584    3.4653407 
H     3.5870472    0.2936584    3.7804705 
H     4.3964585    0.2936584    3.7804705 
O    -3.5519394   -0.7292301    3.8579552 
H    -3.9566450   -0.7292301    4.1730849 
H    -3.1472338   -0.7292301    4.1730849 
O     4.6405470    2.5341181    0.2191826 
H     4.2358414    2.5341181    0.5343124 
H     5.0452526    2.5341181    0.5343124 
