15
Energy = -448.6954772026
O     0.3227377    0.0000000    0.0000000 
O    -0.3227377    0.0000000    0.0000000 
H    -2.4711151   -1.7700403    4.3316721 
O     2.0636084   -3.4666158    3.4282252 
H     1.6589028   -3.4666158    3.7433550 
H     2.4683140   -3.4666158    3.7433550 
O    -1.8660527   -4.4995531    2.0713006 
H    -2.2707583   -4.4995531    2.3864303 
H    -1.4613471   -4.4995531    2.3864303 
O    -3.5691839    3.8753296    0.4993279 
H    -3.9738895    3.8753296    0.8144577 
H    -3.1644783    3.8753296    0.8144577 
O    -2.8715979    0.4897388   -4.4140311 
H    -3.2763035    0.4897388   -4.0989013 
H    -2.4668923    0.4897388   -4.0989013 
