15
Energy = -448.6997806758
O     0.3227377    0.0000000    0.0000000 
O    -0.3227377    0.0000000    0.0000000 
H     3.0912109    0.5659333    4.2575780 
O     2.5596095   -4.6171044   -0.3617247 
H     2.1549039   -4.6171044   -0.0465950 
H     2.9643151   -4.6171044   -0.0465950 
O     3.7135604   -2.2117124    3.0567357 
H     3.3088547   -2.2117124    3.3718655 
H     4.1182660   -2.2117124    3.3718655 
O     0.1600712   -3.6403884    3.8410533 
H    -0.2446344   -3.6403884    4.1561831 
H     0.5647768   -3.6403884    4.1561831 
O    -2.8463287   -2.9206661   -3.3683208 
H    -3.2510343   -2.9206661   -3.0531910 
H    -2.4416230   -2.9206661   -3.0531910 
