15
Energy = -448.6684681786
O     0.3227377    0.0000000    0.0000000 
O    -0.3227377    0.0000000    0.0000000 
H     0.3837919   -2.5258370    2.6822082 
O    -1.2819519   -2.1632983    2.7237147 
H    -1.6866575   -2.1632983    3.0388445 
H    -0.8772463   -2.1632983    3.0388445 
O    -2.7403558    2.4647433    0.3737377 
H    -3.1450614    2.4647433    0.6888675 
H    -2.3356501    2.4647433    0.6888675 
O    -2.1624130   -1.6211336   -2.5294717 
H    -2.5671186   -1.6211336   -2.2143420 
H    -1.7577074   -1.6211336   -2.2143420 
O     1.7745613   -1.0352182   -3.0785472 
H     1.3698557   -1.0352182   -2.7634174 
H     2.1792670   -1.0352182   -2.7634174 
