15
Energy = -448.6748252995
O     0.3227377    0.0000000    0.0000000 
O    -0.3227377    0.0000000    0.0000000 
H    -5.0869291   -0.8349200   -1.1953650 
O    -4.2620924    1.9967910    2.4224894 
H    -4.6667980    1.9967910    2.7376192 
H    -3.8573867    1.9967910    2.7376192 
O     2.9887259    1.3831501   -4.1383666 
H     2.5840203    1.3831501   -3.8232368 
H     3.3934315    1.3831501   -3.8232368 
O     1.8639708   -2.1419877   -4.4616960 
H     1.4592652   -2.1419877   -4.1465663 
H     2.2686764   -2.1419877   -4.1465663 
O     3.8723374   -2.1548379   -2.8883823 
H     3.4676318   -2.1548379   -2.5732525 
H     4.2770430   -2.1548379   -2.5732525 
