15
Energy = -448.2624154049
O     0.3227377    0.0000000    0.0000000 
O    -0.3227377    0.0000000    0.0000000 
H    -1.7041699    5.0068002    0.1749095 
O    -0.0983584    3.2402514   -4.1788104 
H    -0.5030640    3.2402514   -3.8636806 
H     0.3063472    3.2402514   -3.8636806 
O     3.5978749   -3.6489141   -1.3166742 
H     3.1931693   -3.6489141   -1.0015445 
H     4.0025805   -3.6489141   -1.0015445 
O     2.4179580   -2.8018059    3.7861181 
H     2.0132524   -2.8018059    4.1012478 
H     2.8226636   -2.8018059    4.1012478 
O     2.5394821   -4.0898329   -2.1933094 
H     2.1347764   -4.0898329   -1.8781797 
H     2.9441877   -4.0898329   -1.8781797 
