15
Energy = -448.6821850808
O     0.3227377    0.0000000    0.0000000 
O    -0.3227377    0.0000000    0.0000000 
H    -2.3533450    2.3106759    4.1382823 
O    -5.0725368    1.1053788   -1.0210987 
H    -5.4772424    1.1053788   -0.7059690 
H    -4.6678311    1.1053788   -0.7059690 
O    -4.2524423   -1.1987022   -2.9087403 
H    -4.6571479   -1.1987022   -2.5936105 
H    -3.8477366   -1.1987022   -2.5936105 
O    -0.9977261    2.7177720   -4.4258060 
H    -1.4024317    2.7177720   -4.1106762 
H    -0.5930205    2.7177720   -4.1106762 
O    -3.4520161    3.1082231    2.5385958 
H    -3.8567217    3.1082231    2.8537255 
H    -3.0473105    3.1082231    2.8537255 
