15
Energy = -448.6922919011
O     0.3227377    0.0000000    0.0000000 
O    -0.3227377    0.0000000    0.0000000 
H     2.4670367    2.8652543   -3.7022809 
O    -5.0093056   -0.2791838    1.6865449 
H    -5.4140112   -0.2791838    2.0016746 
H    -4.6046000   -0.2791838    2.0016746 
O    -3.7350014   -3.7146122    0.5080032 
H    -4.1397070   -3.7146122    0.8231329 
H    -3.3302958   -3.7146122    0.8231329 
O     2.5750537   -3.1468539   -3.3828630 
H     2.1703480   -3.1468539   -3.0677332 
H     2.9797593   -3.1468539   -3.0677332 
O     4.3876319   -2.7345967    1.1322606 
H     3.9829262   -2.7345967    1.4473903 
H     4.7923375   -2.7345967    1.4473903 
