15
Energy = -448.7042142785
O     0.3227377    0.0000000    0.0000000 
O    -0.3227377    0.0000000    0.0000000 
H     0.8307067   -1.2671674    5.0702120 
O     3.8270039   -1.3365900    3.4052941 
H     3.4222983   -1.3365900    3.7204239 
H     4.2317096   -1.3365900    3.7204239 
O    -2.7144565    3.5983760    2.7761735 
H    -3.1191621    3.5983760    3.0913033 
H    -2.3097509    3.5983760    3.0913033 
O    -3.0225643   -3.0781458    3.0683949 
H    -3.4272700   -3.0781458    3.3835246 
H    -2.6178587   -3.0781458    3.3835246 
O    -3.6036307   -3.3712143   -1.9071505 
H    -4.0083363   -3.3712143   -1.5920207 
H    -3.1989251   -3.3712143   -1.5920207 
