15
Energy = -448.6917028182
O     0.3227377    0.0000000    0.0000000 
O    -0.3227377    0.0000000    0.0000000 
H    -4.3972434    2.9436281   -0.0462595 
O    -4.4516133   -2.3802143    1.5913900 
H    -4.8563190   -2.3802143    1.9065197 
H    -4.0469077   -2.3802143    1.9065197 
O    -2.8472562    1.5439359   -4.1809972 
H    -3.2519619    1.5439359   -3.8658674 
H    -2.4425506    1.5439359   -3.8658674 
O     1.0798515    5.1732451    0.2763308 
H     0.6751459    5.1732451    0.5914605 
H     1.4845571    5.1732451    0.5914605 
O     3.5955726   -3.8754479    0.2395559 
H     3.1908669   -3.8754479    0.5546856 
H     4.0002782   -3.8754479    0.5546856 
