15
Energy = -448.7186979935
O     0.3227377    0.0000000    0.0000000 
O    -0.3227377    0.0000000    0.0000000 
H     2.7056249   -0.0062505   -2.5300088 
O    -1.6221957   -1.9448348    2.7070012 
H    -2.0269013   -1.9448348    3.0221309 
H    -1.2174900   -1.9448348    3.0221309 
O     2.8724187    1.8477732    1.4377570 
H     2.4677131    1.8477732    1.7528868 
H     3.2771243    1.8477732    1.7528868 
O     3.1595010   -1.6990831   -0.9193064 
H     2.7547954   -1.6990831   -0.6041766 
H     3.5642066   -1.6990831   -0.6041766 
O    -0.0708980    3.7016235   -0.1160131 
H    -0.4756037    3.7016235    0.1991166 
H     0.3338076    3.7016235    0.1991166 
