15
Energy = -448.7194202827
O     0.3227377    0.0000000    0.0000000 
O    -0.3227377    0.0000000    0.0000000 
H     0.9312389    1.6797301   -3.1674423 
O     2.3663850    1.9442605    2.0873822 
H     1.9616794    1.9442605    2.4025119 
H     2.7710906    1.9442605    2.4025119 
O     3.0671196   -2.0154057    0.5060657 
H     2.6624140   -2.0154057    0.8211955 
H     3.4718252   -2.0154057    0.8211955 
O    -3.5495906   -0.9757745   -0.4081342 
H    -3.9542962   -0.9757745   -0.0930044 
H    -3.1448850   -0.9757745   -0.0930044 
O    -2.0860044   -1.8707108    2.4266587 
H    -2.4907100   -1.8707108    2.7417884 
H    -1.6812988   -1.8707108    2.7417884 
