15
Energy = -448.6845872759
O     0.3227377    0.0000000    0.0000000 
O    -0.3227377    0.0000000    0.0000000 
H    -4.4634246    1.5172881   -2.4038540 
O    -0.1235385    4.1324363   -3.2993468 
H    -0.5282441    4.1324363   -2.9842171 
H     0.2811672    4.1324363   -2.9842171 
O     4.2720451   -1.7762655   -2.5647658 
H     3.8673395   -1.7762655   -2.2496361 
H     4.6767507   -1.7762655   -2.2496361 
O    -2.5350326   -3.3414148   -3.2229046 
H    -2.9397382   -3.3414148   -2.9077748 
H    -2.1303269   -3.3414148   -2.9077748 
O     1.6537951    4.9473805    0.8932722 
H     1.2490894    4.9473805    1.2084019 
H     2.0585007    4.9473805    1.2084019 
