15
Energy = -448.7011949682
O     0.3227377    0.0000000    0.0000000 
O    -0.3227377    0.0000000    0.0000000 
H     3.9523337    3.3674324   -1.0209277 
O    -3.4462802   -3.8682759   -1.0743960 
H    -3.8509858   -3.8682759   -0.7592662 
H    -3.0415746   -3.8682759   -0.7592662 
O    -3.5092776    3.4356805    1.9745273 
H    -3.9139832    3.4356805    2.2896570 
H    -3.1045720    3.4356805    2.2896570 
O    -2.6467140   -3.6462146    2.7791672 
H    -3.0514197   -3.6462146    3.0942969 
H    -2.2420084   -3.6462146    3.0942969 
O     1.6491156   -5.0282454    0.0052576 
H     1.2444100   -5.0282454    0.3203873 
H     2.0538212   -5.0282454    0.3203873 
