15
Energy = -448.7097928879
O     0.3227377    0.0000000    0.0000000 
O    -0.3227377    0.0000000    0.0000000 
H     2.2695082    2.9020423    0.3858405 
O     2.2725114   -0.7195147    2.8391446 
H     1.8678058   -0.7195147    3.1542743 
H     2.6772170   -0.7195147    3.1542743 
O     1.4593478   -1.6672557   -2.9647288 
H     1.0546422   -1.6672557   -2.6495990 
H     1.8640534   -1.6672557   -2.6495990 
O     3.6884295    0.1308569    0.3196031 
H     3.2837239    0.1308569    0.6347329 
H     4.0931351    0.1308569    0.6347329 
O    -3.0490320   -2.0847411    0.2842068 
H    -3.4537377   -2.0847411    0.5993366 
H    -2.6443264   -2.0847411    0.5993366 
