15
Energy = -448.5138371785
O     0.3227377    0.0000000    0.0000000 
O    -0.3227377    0.0000000    0.0000000 
H    -3.2707278    4.1201522    0.5740400 
O     0.9650155    5.1137730   -0.9558744 
H     0.5603098    5.1137730   -0.6407446 
H     1.3697211    5.1137730   -0.6407446 
O    -4.4183455    1.9174180   -2.1881678 
H    -4.8230511    1.9174180   -1.8730381 
H    -4.0136399    1.9174180   -1.8730381 
O    -4.2483014   -1.5946925   -2.7186844 
H    -4.6530070   -1.5946925   -2.4035546 
H    -3.8435957   -1.5946925   -2.4035546 
O    -3.6655654    3.3270117   -1.8663851 
H    -4.0702710    3.3270117   -1.5512553 
H    -3.2608598    3.3270117   -1.5512553 
