15
Energy = -448.6903384311
O     0.3227377    0.0000000    0.0000000 
O    -0.3227377    0.0000000    0.0000000 
H    -3.2211866    3.9731596    1.3567592 
O     2.7560148    3.3309868   -3.0477509 
H     2.3513092    3.3309868   -2.7326211 
H     3.1607204    3.3309868   -2.7326211 
O    -0.8931069    3.8929212    3.4751274 
H    -1.2978125    3.8929212    3.7902571 
H    -0.4884013    3.8929212    3.7902571 
O    -0.5381677   -3.9847873   -3.4363928 
H    -0.9428733   -3.9847873   -3.1212630 
H    -0.1334621   -3.9847873   -3.1212630 
O    -4.4867484   -2.8047236    0.0775923 
H    -4.8914540   -2.8047236    0.3927220 
H    -4.0820428   -2.8047236    0.3927220 
