15
Energy = -448.6982206307
O     0.3227377    0.0000000    0.0000000 
O    -0.3227377    0.0000000    0.0000000 
H     1.9693218    3.2965641   -3.6410538 
O    -2.8540393   -4.4072742   -0.6544377 
H    -3.2587449   -4.4072742   -0.3393080 
H    -2.4493337   -4.4072742   -0.3393080 
O    -2.2261782    1.6358279    4.5171926 
H    -2.6308839    1.6358279    4.8323224 
H    -1.8214726    1.6358279    4.8323224 
O    -3.6683010   -2.2160962    3.1078458 
H    -4.0730067   -2.2160962    3.4229756 
H    -3.2635954   -2.2160962    3.4229756 
O    -1.3437622    3.7362785    3.5019586 
H    -1.7484679    3.7362785    3.8170884 
H    -0.9390566    3.7362785    3.8170884 
