15
Energy = -448.6953668770
O     0.3227377    0.0000000    0.0000000 
O    -0.3227377    0.0000000    0.0000000 
H     1.7223516   -4.9522322    0.7153579 
O    -4.4097010   -2.4084022   -1.6566488 
H    -4.8144066   -2.4084022   -1.3415191 
H    -4.0049954   -2.4084022   -1.3415191 
O     2.8568632   -4.2842264   -1.2154864 
H     2.4521576   -4.2842264   -0.9003567 
H     3.2615688   -4.2842264   -0.9003567 
O    -1.2392873   -4.8132296    1.8203063 
H    -1.6439929   -4.8132296    2.1354360 
H    -0.8345817   -4.8132296    2.1354360 
O    -3.6570938    2.2970631    3.0618688 
H    -4.0617994    2.2970631    3.3769986 
H    -3.2523882    2.2970631    3.3769986 
