15
Energy = -448.6878236366
O     0.3227377    0.0000000    0.0000000 
O    -0.3227377    0.0000000    0.0000000 
H    -1.0069853    3.5657971    3.7780826 
O     3.3976516    1.0685540   -3.9099284 
H     2.9929460    1.0685540   -3.5947987 
H     3.8023572    1.0685540   -3.5947987 
O    -4.2579671    1.7584502    2.6076856 
H    -4.6626727    1.7584502    2.9228153 
H    -3.8532615    1.7584502    2.9228153 
O    -0.3193303   -3.3351140   -4.0923164 
H    -0.7240359   -3.3351140   -3.7771867 
H     0.0853753   -3.3351140   -3.7771867 
O    -2.9382650   -3.9877777    1.8657697 
H    -3.3429706   -3.9877777    2.1808995 
H    -2.5335594   -3.9877777    2.1808995 
