15
Energy = -448.1449244231
O     0.3227377    0.0000000    0.0000000 
O    -0.3227377    0.0000000    0.0000000 
H    -3.5172440   -1.3395006    3.7198883 
O    -1.7302273   -4.1537292    2.7886672 
H    -2.1349329   -4.1537292    3.1037970 
H    -1.3255217   -4.1537292    3.1037970 
O    -1.6933613   -4.5581864   -2.0838899 
H    -2.0980669   -4.5581864   -1.7687602 
H    -1.2886557   -4.5581864   -1.7687602 
O     0.0259159    4.3771215    2.9774779 
H    -0.3787897    4.3771215    3.2926076 
H     0.4306215    4.3771215    3.2926076 
O    -2.3997837   -3.7399234   -2.8697085 
H    -2.8044893   -3.7399234   -2.5545788 
H    -1.9950781   -3.7399234   -2.5545788 
