15
Energy = -448.6409947970
O     0.3227377    0.0000000    0.0000000 
O    -0.3227377    0.0000000    0.0000000 
H     2.4158639   -4.0471017   -2.4057027 
O     2.6772485   -3.1736222   -3.2769823 
H     2.2725428   -3.1736222   -2.9618525 
H     3.0819541   -3.1736222   -2.9618525 
O    -1.7174127   -4.2914882   -2.5723681 
H    -2.1221184   -4.2914882   -2.2572383 
H    -1.3127071   -4.2914882   -2.2572383 
O    -1.8822829   -2.5188177    4.2599840 
H    -2.2869885   -2.5188177    4.5751137 
H    -1.4775772   -2.5188177    4.5751137 
O     2.5354869   -4.6423625   -0.1466112 
H     2.1307813   -4.6423625    0.1685186 
H     2.9401925   -4.6423625    0.1685186 
