15
Energy = -448.6853343076
O     0.3227377    0.0000000    0.0000000 
O    -0.3227377    0.0000000    0.0000000 
H     4.1191120    2.8308553    1.7383932 
O    -3.3621089    4.0863597    0.0306801 
H    -3.7668145    4.0863597    0.3458099 
H    -2.9574033    4.0863597    0.3458099 
O    -4.1461099   -1.2731351   -3.0280231 
H    -4.5508156   -1.2731351   -2.7128933 
H    -3.7414043   -1.2731351   -2.7128933 
O    -5.2110094   -0.6163241   -0.6806053 
H    -5.6157150   -0.6163241   -0.3654755 
H    -4.8063038   -0.6163241   -0.3654755 
O     2.8938492    3.4217047    2.8180868 
H     2.4891436    3.4217047    3.1332165 
H     3.2985548    3.4217047    3.1332165 
