15
Energy = -448.6977573934
O     0.3227377    0.0000000    0.0000000 
O    -0.3227377    0.0000000    0.0000000 
H     2.5288349   -1.0029671   -2.5140487 
O    -2.4795294   -1.8736619   -2.0118533 
H    -2.8842350   -1.8736619   -1.6967235 
H    -2.0748238   -1.8736619   -1.6967235 
O     2.3330262   -1.8943668    2.1693482 
H     1.9283205   -1.8943668    2.4844780 
H     2.7377318   -1.8943668    2.4844780 
O     0.4260752   -1.8660381    3.1751603 
H     0.0213695   -1.8660381    3.4902900 
H     0.8307808   -1.8660381    3.4902900 
O     2.5594122    2.6768047   -0.0705019 
H     2.1547065    2.6768047    0.2446279 
H     2.9641178    2.6768047    0.2446279 
