15
Energy = -448.6936308411
O     0.3227377    0.0000000    0.0000000 
O    -0.3227377    0.0000000    0.0000000 
H     4.3299128    3.0327502    0.2389934 
O     3.1355437   -3.8941162    1.7378523 
H     2.7308380   -3.8941162    2.0529821 
H     3.5402493   -3.8941162    2.0529821 
O    -3.9023717   -3.4497461   -0.9308922 
H    -4.3070773   -3.4497461   -0.6157624 
H    -3.4976661   -3.4497461   -0.6157624 
O     1.5095799    4.9853043    0.9369021 
H     1.1048743    4.9853043    1.2520318 
H     1.9142856    4.9853043    1.2520318 
O    -0.6171491    4.0635272   -3.3293586 
H    -1.0218547    4.0635272   -3.0142289 
H    -0.2124434    4.0635272   -3.0142289 
