15
Energy = -448.6859229811
O     0.3227377    0.0000000    0.0000000 
O    -0.3227377    0.0000000    0.0000000 
H     0.0088320    1.3865518    3.4349360 
O    -0.5991357    2.8827820   -2.2438997 
H    -1.0038413    2.8827820   -1.9287699 
H    -0.1944301    2.8827820   -1.9287699 
O     2.8771581   -1.6921522   -1.6024647 
H     2.4724524   -1.6921522   -1.2873349 
H     3.2818637   -1.6921522   -1.2873349 
O    -2.3572234    1.4574611    2.4615469 
H    -2.7619290    1.4574611    2.7766767 
H    -1.9525178    1.4574611    2.7766767 
O    -0.9878409   -2.0484641   -2.9201635 
H    -1.3925465   -2.0484641   -2.6050338 
H    -0.5831353   -2.0484641   -2.6050338 
