15
Energy = -448.6561985979
O     0.3227377    0.0000000    0.0000000 
O    -0.3227377    0.0000000    0.0000000 
H    -2.9586851   -3.0777530   -3.1267323 
O     3.1239268    2.7158817   -3.2928860 
H     2.7192212    2.7158817   -2.9777562 
H     3.5286324    2.7158817   -2.9777562 
O    -0.4936162    0.7392252   -5.2128173 
H    -0.8983219    0.7392252   -4.8976875 
H    -0.0889106    0.7392252   -4.8976875 
O     3.0209697    0.6732560   -4.2884732 
H     2.6162641    0.6732560   -3.9733435 
H     3.4256754    0.6732560   -3.9733435 
O    -4.2685653    3.0355342    0.7572353 
H    -4.6732710    3.0355342    1.0723651 
H    -3.8638597    3.0355342    1.0723651 
