15
Energy = -448.6963156380
O     0.3227377    0.0000000    0.0000000 
O    -0.3227377    0.0000000    0.0000000 
H    -2.1448282    4.1222442   -2.5317288 
O     4.2087716    0.8844892    3.0870673 
H     3.8040660    0.8844892    3.4021970 
H     4.6134773    0.8844892    3.4021970 
O    -1.0033733    5.0477308   -1.2276948 
H    -1.4080789    5.0477308   -0.9125650 
H    -0.5986677    5.0477308   -0.9125650 
O    -3.4947414   -3.9525453    0.4124262 
H    -3.8994470   -3.9525453    0.7275560 
H    -3.0900358   -3.9525453    0.7275560 
O     3.3853980   -2.6363483    3.1007928 
H     2.9806924   -2.6363483    3.4159225 
H     3.7901036   -2.6363483    3.4159225 
