15
Energy = -448.7023103315
O     0.3227377    0.0000000    0.0000000 
O    -0.3227377    0.0000000    0.0000000 
H    -3.3795811   -2.5482464    3.1761152 
O    -0.0461619    2.8326067    4.4733331 
H    -0.4508675    2.8326067    4.7884629 
H     0.3585438    2.8326067    4.7884629 
O    -0.8957802   -3.1906107    4.1293453 
H    -1.3004858   -3.1906107    4.4444750 
H    -0.4910746   -3.1906107    4.4444750 
O    -5.1347311   -0.0372860   -1.2752910 
H    -5.5394367   -0.0372860   -0.9601612 
H    -4.7300254   -0.0372860   -0.9601612 
O    -2.3335675   -4.6606061   -0.9105930 
H    -2.7382731   -4.6606061   -0.5954632 
H    -1.9288619   -4.6606061   -0.5954632 
