15
Energy = -448.6995744528
O     0.3227377    0.0000000    0.0000000 
O    -0.3227377    0.0000000    0.0000000 
H     3.7284456   -3.7282357   -0.4492079 
O    -2.9643486   -3.3223027    2.8634459 
H    -3.3690543   -3.3223027    3.1785756 
H    -2.5596430   -3.3223027    3.1785756 
O     5.1969672   -0.9949845   -0.0623728 
H     4.7922616   -0.9949845    0.2527570 
H     5.6016728   -0.9949845    0.2527570 
O    -1.5860979   -0.8809466    4.9747868 
H    -1.9908035   -0.8809466    5.2899165 
H    -1.1813923   -0.8809466    5.2899165 
O    -3.2320675    3.1367504   -2.7742515 
H    -3.6367731    3.1367504   -2.4591218 
H    -2.8273618    3.1367504   -2.4591218 
