15
Energy = -448.6934122754
O     0.3227377    0.0000000    0.0000000 
O    -0.3227377    0.0000000    0.0000000 
H    -2.0028524    3.6064850    3.3143151 
O    -2.9241263   -3.2516489   -2.9760175 
H    -3.3288319   -3.2516489   -2.6608878 
H    -2.5194207   -3.2516489   -2.6608878 
O     2.2064962   -4.1563639    2.4242705 
H     1.8017906   -4.1563639    2.7394003 
H     2.6112018   -4.1563639    2.7394003 
O    -0.4368663    3.9789275   -3.4574666 
H    -0.8415719    3.9789275   -3.1423368 
H    -0.0321607    3.9789275   -3.1423368 
O     1.4408095    4.7976409    1.7095036 
H     1.0361038    4.7976409    2.0246334 
H     1.8455151    4.7976409    2.0246334 
