15
Energy = -448.6589035722
O     0.3227377    0.0000000    0.0000000 
O    -0.3227377    0.0000000    0.0000000 
H     3.5913510    2.6113478    2.8785233 
O    -2.1691808    3.5682154   -3.2466708 
H    -2.5738865    3.5682154   -2.9315410 
H    -1.7644752    3.5682154   -2.9315410 
O    -2.0724248    4.6254096   -1.5172474 
H    -2.4771304    4.6254096   -1.2021177 
H    -1.6677192    4.6254096   -1.2021177 
O    -2.7573829   -2.4927938   -3.7626204 
H    -3.1620885   -2.4927938   -3.4474906 
H    -2.3526773   -2.4927938   -3.4474906 
O    -3.4496246    2.9641652    2.7086954 
H    -3.8543302    2.9641652    3.0238251 
H    -3.0449190    2.9641652    3.0238251 
