15
Energy = -448.6920117494
O     0.3227377    0.0000000    0.0000000 
O    -0.3227377    0.0000000    0.0000000 
H     1.9555384   -4.0637126   -2.7685639 
O    -2.3465226   -3.8586484   -2.7544054 
H    -2.7512282   -3.8586484   -2.4392756 
H    -1.9418169   -3.8586484   -2.4392756 
O     1.7843135    1.6908744    4.6899148 
H     1.3796079    1.6908744    5.0050446 
H     2.1890191    1.6908744    5.0050446 
O     4.9922733    1.6393633   -0.6227584 
H     4.5875677    1.6393633   -0.3076286 
H     5.3969790    1.6393633   -0.3076286 
O    -3.0655528    3.5168474   -2.4936355 
H    -3.4702584    3.5168474   -2.1785058 
H    -2.6608472    3.5168474   -2.1785058 
