15
Energy = -448.6977942982
O     0.3227377    0.0000000    0.0000000 
O    -0.3227377    0.0000000    0.0000000 
H    -0.7624746   -0.5629925   -3.5809303 
O     2.3737553    1.3487583    2.5072673 
H     1.9690496    1.3487583    2.8223971 
H     2.7784609    1.3487583    2.8223971 
O     2.6039212   -1.3084102    2.2904753 
H     2.1992156   -1.3084102    2.6056051 
H     3.0086268   -1.3084102    2.6056051 
O    -3.1692548   -1.2108829   -1.4831708 
H    -3.5739604   -1.2108829   -1.1680411 
H    -2.7645491   -1.2108829   -1.1680411 
O     3.2118985   -1.1293367   -1.4555835 
H     2.8071929   -1.1293367   -1.1404537 
H     3.6166041   -1.1293367   -1.1404537 
