15
Energy = -448.6846272566
O     0.3227377    0.0000000    0.0000000 
O    -0.3227377    0.0000000    0.0000000 
H    -3.0120727    4.3503836   -0.0664593 
O    -2.9893255    1.5462999   -4.0798278 
H    -3.3940312    1.5462999   -3.7646980 
H    -2.5846199    1.5462999   -3.7646980 
O     4.9672664    1.7939100   -0.3293834 
H     4.5625608    1.7939100   -0.0142537 
H     5.3719720    1.7939100   -0.0142537 
O     2.5961510    3.1321321    3.3879311 
H     2.1914454    3.1321321    3.7030609 
H     3.0008566    3.1321321    3.7030609 
O    -4.5826840    1.2730347   -2.3159826 
H    -4.9873896    1.2730347   -2.0008528 
H    -4.1779783    1.2730347   -2.0008528 
