15
Energy = -448.6792584879
O     0.3227377    0.0000000    0.0000000 
O    -0.3227377    0.0000000    0.0000000 
H    -3.7854298    2.6897507   -2.5374394 
O    -3.9816505   -3.1707260    1.4514497 
H    -4.3863561   -3.1707260    1.7665794 
H    -3.5769448   -3.1707260    1.7665794 
O     3.4088238    2.7134450   -2.9995624 
H     3.0041182    2.7134450   -2.6844327 
H     3.8135294    2.7134450   -2.6844327 
O    -2.2083486   -1.1569948   -4.6639326 
H    -2.6130542   -1.1569948   -4.3488028 
H    -1.8036429   -1.1569948   -4.3488028 
O     2.9910363   -2.0308821   -3.8604374 
H     2.5863307   -2.0308821   -3.5453076 
H     3.3957420   -2.0308821   -3.5453076 
