15
Energy = -448.6932468323
O     0.3227377    0.0000000    0.0000000 
O    -0.3227377    0.0000000    0.0000000 
H     3.2538686   -0.9625770   -4.0606183 
O     3.5424237   -1.5411789    3.6202321 
H     3.1377181   -1.5411789    3.9353619 
H     3.9471293   -1.5411789    3.9353619 
O     3.7423816    3.1344079    2.0465330 
H     3.3376760    3.1344079    2.3616627 
H     4.1470872    3.1344079    2.3616627 
O     1.2803258    3.1469013   -4.0534038 
H     0.8756202    3.1469013   -3.7382740 
H     1.6850315    3.1469013   -3.7382740 
O     5.1182385   -0.2123665   -1.3234021 
H     4.7135329   -0.2123665   -1.0082723 
H     5.5229441   -0.2123665   -1.0082723 
