15
Energy = -448.4217613232
O     0.3227377    0.0000000    0.0000000 
O    -0.3227377    0.0000000    0.0000000 
H    -1.0773862   -4.5664107   -2.4474412 
O    -1.1052539   -3.9400741   -3.3513906 
H    -1.5099595   -3.9400741   -3.0362609 
H    -0.7005482   -3.9400741   -3.0362609 
O    -2.3698310   -0.7991203   -4.6597261 
H    -2.7745366   -0.7991203   -4.3445963 
H    -1.9651254   -0.7991203   -4.3445963 
O    -2.1663028   -4.4045750   -1.9735285 
H    -2.5710084   -4.4045750   -1.6583987 
H    -1.7615972   -4.4045750   -1.6583987 
O    -4.3540175    2.9016085   -0.7874595 
H    -4.7587231    2.9016085   -0.4723297 
H    -3.9493119    2.9016085   -0.4723297 
