15
Energy = -448.7092767823
O     0.3227377    0.0000000    0.0000000 
O    -0.3227377    0.0000000    0.0000000 
H    -2.2667847   -2.4834386    1.5542230 
O     0.4636491    3.2749495    1.6714350 
H     0.0589435    3.2749495    1.9865647 
H     0.8683547    3.2749495    1.9865647 
O    -0.6061921   -3.6338351    0.3899815 
H    -1.0108977   -3.6338351    0.7051113 
H    -0.2014865   -3.6338351    0.7051113 
O     0.3158503   -2.9934837    2.1626262 
H    -0.0888553   -2.9934837    2.4777559 
H     0.7205559   -2.9934837    2.4777559 
O    -3.1598150   -1.8654921   -0.5030868 
H    -3.5645206   -1.8654921   -0.1879570 
H    -2.7551093   -1.8654921   -0.1879570 
