15
Energy = -448.6315168985
O     0.3227377    0.0000000    0.0000000 
O    -0.3227377    0.0000000    0.0000000 
H    -0.1189683    2.5996424   -2.6361138 
O    -2.2331572    1.5074415    2.5458146 
H    -2.6378628    1.5074415    2.8609443 
H    -1.8284515    1.5074415    2.8609443 
O     3.0213195   -1.5659029    1.4669686 
H     2.6166138   -1.5659029    1.7820984 
H     3.4260251   -1.5659029    1.7820984 
O     2.7009021    0.9323408   -2.3536193 
H     2.2961965    0.9323408   -2.0384896 
H     3.1056077    0.9323408   -2.0384896 
O     2.7698925   -2.4562481   -0.1224519 
H     2.3651869   -2.4562481    0.1926778 
H     3.1745981   -2.4562481    0.1926778 
