15
Energy = -448.6753844470
O     0.3227377    0.0000000    0.0000000 
O    -0.3227377    0.0000000    0.0000000 
H     1.1346738   -3.4646280   -3.8355839 
O     4.1716606    3.0771791   -1.0597452 
H     3.7669550    3.0771791   -0.7446155 
H     4.5763662    3.0771791   -0.7446155 
O     0.2588467    4.0555552   -3.3856759 
H    -0.1458589    4.0555552   -3.0705462 
H     0.6635523    4.0555552   -3.0705462 
O    -1.9915780    1.5968848   -4.6315793 
H    -2.3962836    1.5968848   -4.3164496 
H    -1.5868724    1.5968848   -4.3164496 
O     2.5773262   -1.3384452   -4.4198981 
H     2.1726206   -1.3384452   -4.1047683 
H     2.9820318   -1.3384452   -4.1047683 
