15
Energy = -448.6719842492
O     0.3227377    0.0000000    0.0000000 
O    -0.3227377    0.0000000    0.0000000 
H     2.0248178    3.4029001    3.5104444 
O    -0.8144525    0.7495422    5.1784808 
H    -1.2191581    0.7495422    5.4936106 
H    -0.4097469    0.7495422    5.4936106 
O    -1.8908630   -0.3319562   -4.9274908 
H    -2.2955686   -0.3319562   -4.6123610 
H    -1.4861573   -0.3319562   -4.6123610 
O     0.9280383    2.9034277    4.3294654 
H     0.5233327    2.9034277    4.6445952 
H     1.3327439    2.9034277    4.6445952 
O     3.1021392    1.6282497   -3.9621366 
H     2.6974336    1.6282497   -3.6470069 
H     3.5068449    1.6282497   -3.6470069 
