15
Energy = -448.2577431230
O     0.3227377    0.0000000    0.0000000 
O    -0.3227377    0.0000000    0.0000000 
H    -0.5639256    4.4446033   -2.8160833 
O     4.7087494   -0.1670042    2.4126283 
H     4.3040438   -0.1670042    2.7277580 
H     5.1134550   -0.1670042    2.7277580 
O     0.8753860   -4.8565192   -1.9069309 
H     0.4706803   -4.8565192   -1.5918012 
H     1.2800916   -4.8565192   -1.5918012 
O     3.8934310   -0.3551030    3.5699856 
H     3.4887254   -0.3551030    3.8851153 
H     4.2981366   -0.3551030    3.8851153 
O    -4.3287675    2.9007730    0.9257864 
H    -4.7334731    2.9007730    1.2409161 
H    -3.9240619    2.9007730    1.2409161 
