15
Energy = -448.6992206141
O     0.3227377    0.0000000    0.0000000 
O    -0.3227377    0.0000000    0.0000000 
H    -4.7376507    1.7047075    1.6283349 
O     0.3332184   -2.4766105    4.6683332 
H    -0.0714872   -2.4766105    4.9834630 
H     0.7379241   -2.4766105    4.9834630 
O     3.0949853   -4.1953258   -0.9035081 
H     2.6902796   -4.1953258   -0.5883784 
H     3.4996909   -4.1953258   -0.5883784 
O    -4.2253972   -2.1241366    2.3779797 
H    -4.6301028   -2.1241366    2.6931095 
H    -3.8206916   -2.1241366    2.6931095 
O     5.0602702   -1.5268049   -0.2519076 
H     4.6555646   -1.5268049    0.0632222 
H     5.4649758   -1.5268049    0.0632222 
