15
Energy = -448.6913876937
O     0.3227377    0.0000000    0.0000000 
O    -0.3227377    0.0000000    0.0000000 
H     1.2979189    4.2179237   -2.9201647 
O    -4.9437814   -1.8055299    0.5532396 
H    -5.3484871   -1.8055299    0.8683694 
H    -4.5390758   -1.8055299    0.8683694 
O     3.1027877    4.0588897   -1.3749883 
H     2.6980821    4.0588897   -1.0598586 
H     3.5074933    4.0588897   -1.0598586 
O    -3.4985379   -3.1646579    2.4012651 
H    -3.9032435   -3.1646579    2.7163948 
H    -3.0938323   -3.1646579    2.7163948 
O    -3.7677130    3.6727256   -0.5603816 
H    -4.1724187    3.6727256   -0.2452519 
H    -3.3630074    3.6727256   -0.2452519 
