15
Energy = -448.6868859512
O     0.3227377    0.0000000    0.0000000 
O    -0.3227377    0.0000000    0.0000000 
H    -1.7062631    3.4553795    3.6265486 
O    -2.8241897    1.9601252   -4.0192565 
H    -3.2288953    1.9601252   -3.7041267 
H    -2.4194841    1.9601252   -3.7041267 
O     1.9871616    1.8977669   -4.5186802 
H     1.5824560    1.8977669   -4.2035504 
H     2.3918673    1.8977669   -4.2035504 
O    -5.0057138    1.6998158    0.2410230 
H    -5.4104194    1.6998158    0.5561528 
H    -4.6010082    1.6998158    0.5561528 
O     2.6535530    3.3987511    3.0713341 
H     2.2488474    3.3987511    3.3864638 
H     3.0582586    3.3987511    3.3864638 
