15
Energy = -448.7022410018
O     0.3227377    0.0000000    0.0000000 
O    -0.3227377    0.0000000    0.0000000 
H     0.7079887   -2.1059843    4.8027511 
O     4.2098482   -0.2718615   -3.1909352 
H     3.8051425   -0.2718615   -2.8758054 
H     4.6145538   -0.2718615   -2.8758054 
O     5.2548915   -0.2337681    0.5819546 
H     4.8501859   -0.2337681    0.8970844 
H     5.6595971   -0.2337681    0.8970844 
O     3.3891941   -2.4385353    3.2548789 
H     2.9844885   -2.4385353    3.5700086 
H     3.7938998   -2.4385353    3.5700086 
O    -0.8509018    1.4992768    5.0068606 
H    -1.2556074    1.4992768    5.3219904 
H    -0.4461962    1.4992768    5.3219904 
