15
Energy = -448.6816382139
O     0.3227377    0.0000000    0.0000000 
O    -0.3227377    0.0000000    0.0000000 
H     4.1218753    2.7649607    1.8352038 
O     4.4427679   -0.4982203   -2.8275649 
H     4.0380623   -0.4982203   -2.5124351 
H     4.8474735   -0.4982203   -2.5124351 
O    -2.5142813   -4.4411024   -1.3954620 
H    -2.9189870   -4.4411024   -1.0803323 
H    -2.1095757   -4.4411024   -1.0803323 
O    -0.8994485    3.6714649   -3.6995008 
H    -1.3041541    3.6714649   -3.3843710 
H    -0.4947429    3.6714649   -3.3843710 
O     3.7808954    3.4238850   -1.4050214 
H     3.3761898    3.4238850   -1.0898916 
H     4.1856010    3.4238850   -1.0898916 
