15
Energy = -448.6828212226
O     0.3227377    0.0000000    0.0000000 
O    -0.3227377    0.0000000    0.0000000 
H    -2.5528625    2.5832935   -0.7286131 
O     3.5876038   -0.0692684   -0.9158498 
H     3.1828982   -0.0692684   -0.6007201 
H     3.9923094   -0.0692684   -0.6007201 
O     2.9082827   -2.2898173   -0.1377220 
H     2.5035770   -2.2898173    0.1774077 
H     3.3129883   -2.2898173    0.1774077 
O    -0.5621190    3.1463339   -1.8686657 
H    -0.9668246    3.1463339   -1.5535360 
H    -0.1574133    3.1463339   -1.5535360 
O    -0.7084506   -3.4650503   -1.0975593 
H    -1.1131562   -3.4650503   -0.7824296 
H    -0.3037450   -3.4650503   -0.7824296 
