15
Energy = -448.6853609228
O     0.3227377    0.0000000    0.0000000 
O    -0.3227377    0.0000000    0.0000000 
H    -3.8608168   -1.6213737   -3.2354408 
O    -3.2971510    0.1156282   -4.1336576 
H    -3.7018566    0.1156282   -3.8185279 
H    -2.8924454    0.1156282   -3.8185279 
O    -0.8345138    4.3112493   -2.9491243 
H    -1.2392194    4.3112493   -2.6339945 
H    -0.4298082    4.3112493   -2.6339945 
O    -0.4753313    5.2559969    0.3928572 
H    -0.8800369    5.2559969    0.7079870 
H    -0.0706257    5.2559969    0.7079870 
O    -3.6418625    2.6947974   -2.7307813 
H    -4.0465681    2.6947974   -2.4156516 
H    -3.2371569    2.6947974   -2.4156516 
