15
Energy = -448.6921138194
O     0.3227377    0.0000000    0.0000000 
O    -0.3227377    0.0000000    0.0000000 
H     3.3451208    2.3188303    3.3817198 
O    -2.8664071   -3.6950272   -2.4727898 
H    -3.2711127   -3.6950272   -2.1576600 
H    -2.4617014   -3.6950272   -2.1576600 
O     2.0884198   -3.2833681   -3.5824359 
H     1.6837141   -3.2833681   -3.2673061 
H     2.4931254   -3.2833681   -3.2673061 
O     3.0856562   -4.1908713    0.9619711 
H     2.6809505   -4.1908713    1.2771009 
H     3.4903618   -4.1908713    1.2771009 
O     0.5156710    4.9395625    1.8306859 
H     0.1109654    4.9395625    2.1458157 
H     0.9203766    4.9395625    2.1458157 
