15
Energy = -448.6282587651
O     0.3227377    0.0000000    0.0000000 
O    -0.3227377    0.0000000    0.0000000 
H     1.1667577    4.8793991   -1.6831449 
O    -2.9603844    1.3632853   -4.1652178 
H    -3.3650900    1.3632853   -3.8500881 
H    -2.5556788    1.3632853   -3.8500881 
O    -3.1970666   -2.2049980    3.5981469 
H    -3.6017722   -2.2049980    3.9132766 
H    -2.7923610   -2.2049980    3.9132766 
O    -2.8304590    2.1011142    3.9504919 
H    -3.2351646    2.1011142    4.2656216 
H    -2.4257534    2.1011142    4.2656216 
O    -2.9936918    3.4531737    2.6713920 
H    -3.3983974    3.4531737    2.9865218 
H    -2.5889862    3.4531737    2.9865218 
