15
Energy = -448.5679068937
O     0.3227377    0.0000000    0.0000000 
O    -0.3227377    0.0000000    0.0000000 
H    -3.2106311    3.2667895   -2.6500510 
O     3.5010564    3.9629110    0.2056975 
H     3.0963508    3.9629110    0.5208272 
H     3.9057620    3.9629110    0.5208272 
O    -1.5343361    1.3872143   -4.8669938 
H    -1.9390417    1.3872143   -4.5518640 
H    -1.1296304    1.3872143   -4.5518640 
O     1.3524234    3.6318873    3.6069827 
H     0.9477178    3.6318873    3.9221124 
H     1.7571291    3.6318873    3.9221124 
O     0.3350402    2.6469803    4.5736747 
H    -0.0696654    2.6469803    4.8888044 
H     0.7397458    2.6469803    4.8888044 
