15
Energy = -448.6948345384
O     0.3227377    0.0000000    0.0000000 
O    -0.3227377    0.0000000    0.0000000 
H     3.3706147   -2.4644236    3.2509089 
O    -0.6646860   -3.0550338   -4.2656380 
H    -1.0693916   -3.0550338   -3.9505082 
H    -0.2599804   -3.0550338   -3.9505082 
O    -0.0064362   -2.7309237    4.5364072 
H    -0.4111418   -2.7309237    4.8515370 
H     0.3982695   -2.7309237    4.8515370 
O    -5.1299023   -1.2815751    0.2147238 
H    -5.5346079   -1.2815751    0.5298536 
H    -4.7251967   -1.2815751    0.5298536 
O     4.6655834    2.3202072    0.9266981 
H     4.2608778    2.3202072    1.2418278 
H     5.0702890    2.3202072    1.2418278 
