15
Energy = -448.6181235313
O     0.3227377    0.0000000    0.0000000 
O    -0.3227377    0.0000000    0.0000000 
H    -2.6492620    3.1331658   -3.3417838 
O     0.8518787    5.1925875    0.5642769 
H     0.4471731    5.1925875    0.8794066 
H     1.2565843    5.1925875    0.8794066 
O    -4.0499493   -3.0422172   -1.5277906 
H    -4.4546550   -3.0422172   -1.2126608 
H    -3.6452437   -3.0422172   -1.2126608 
O    -4.7681268   -1.2916949   -1.8934248 
H    -5.1728324   -1.2916949   -1.5782951 
H    -4.3634212   -1.2916949   -1.5782951 
O     3.1207263    1.9137599   -3.8174169 
H     2.7160207    1.9137599   -3.5022871 
H     3.5254319    1.9137599   -3.5022871 
