15
Energy = -448.6513720967
O     0.3227377    0.0000000    0.0000000 
O    -0.3227377    0.0000000    0.0000000 
H     4.5422221   -0.7111503    2.6201756 
O     3.9657169   -0.3101890    3.4937083 
H     3.5610113   -0.3101890    3.8088381 
H     4.3704226   -0.3101890    3.8088381 
O    -2.5733504   -0.3477317   -4.6070691 
H    -2.9780560   -0.3477317   -4.2919394 
H    -2.1686448   -0.3477317   -4.2919394 
O     1.0922593    5.1529002    0.5111354 
H     0.6875537    5.1529002    0.8262651 
H     1.4969649    5.1529002    0.8262651 
O     3.0166333   -2.6108653    3.4802774 
H     2.6119277   -2.6108653    3.7954071 
H     3.4213389   -2.6108653    3.7954071 
