15
Energy =
O     0.3227377    0.0000000    0.0000000 
O    -0.3227377    0.0000000    0.0000000 
H    -1.4948141    3.3871950    0.1176039 
O     3.3948511   -1.4571101   -0.2668012 
H     2.9901455   -1.4571101    0.0483286 
H     3.7995567   -1.4571101    0.0483286 
O     2.1362111    2.6658625    1.4359547 
H     1.7315055    2.6658625    1.7510845 
H     2.5409167    2.6658625    1.7510845 
O     2.5908167   -0.0288498    2.6510700 
H     2.1861110   -0.0288498    2.9661997 
H     2.9955223   -0.0288498    2.9661997 
O     2.4184726   -2.6302902    0.9804698 
H     2.0137670   -2.6302902    1.2955995 
H     2.8231782   -2.6302902    1.2955995 
